@<TRIPOS>MOLECULE
global
  1488  3552    24
SMALL
NO_CHARGES
****
Generated from the CSD

@<TRIPOS>ATOM
     1 Cs       0.0000   4.1230   0.0000   Cs        1 RES1   0.0000
     2 Cl       2.0615   6.1845   2.0615   Cl        1 RES1   0.0000
     3 Cs      -4.1230   4.1230  -4.1230   Cs        1 RES1   0.0000
     4 Cl      -2.0615   2.0615  -2.0615   Cl        1 RES1   0.0000
     5 Cs       0.0000   0.0000   4.1230   Cs        1 RES1   0.0000
     6 Cl      -2.0615   2.0615   2.0615   Cl        1 RES1   0.0000
     7 Cs       4.1230   0.0000   0.0000   Cs        1 RES1   0.0000
     8 Cl       2.0615   2.0615  -2.0615   Cl        1 RES1   0.0000
     9 Cs       4.1230   4.1230   4.1230   Cs        1 RES1   0.0000
    10 Cs      -4.1230   4.1230   4.1230   Cs        1 RES1   0.0000
    11 Cs       0.0000   0.0000   0.0000   Cs        1 RES1   0.0000
    12 Cs       4.1230   4.1230  -4.1230   Cs        1 RES1   0.0000
    13 Cl       2.0615   2.0615   2.0615   Cl        1 RES1   0.0000
    14 Cs      -4.1230  -0.0000  -4.1230   Cs        1 RES1   0.0000
    15 Cs      -4.1230   0.0000   0.0000   Cs        1 RES1   0.0000
    16 Cs      -4.1230   0.0000   4.1230   Cs        1 RES1   0.0000
    17 Cs      -4.1230   4.1230   0.0000   Cs        1 RES1   0.0000
    18 Cs      -0.0000  -0.0000  -4.1230   Cs        1 RES1   0.0000
    19 Cs       0.0000   4.1230  -4.1230   Cs        1 RES1   0.0000
    20 Cs       0.0000   4.1230   4.1230   Cs        1 RES1   0.0000
    21 Cs       0.0000   8.2460   0.0000   Cs        1 RES1   0.0000
    22 Cs       0.0000   8.2460   4.1230   Cs        1 RES1   0.0000
    23 Cs       4.1230  -0.0000  -4.1230   Cs        1 RES1   0.0000
    24 Cs       4.1230   0.0000   4.1230   Cs        1 RES1   0.0000
    25 Cs       4.1230   4.1230   0.0000   Cs        1 RES1   0.0000
    26 Cs       4.1230   8.2460   0.0000   Cs        1 RES1   0.0000
    27 Cs       4.1230   8.2460   4.1230   Cs        1 RES1   0.0000
    28 Cl      -6.1845   2.0615  -6.1845   Cl        1 RES1   0.0000
    29 Cl      -6.1845   2.0615  -2.0615   Cl        1 RES1   0.0000
    30 Cl      -6.1845   2.0615   2.0615   Cl        1 RES1   0.0000
    31 Cl      -6.1845   2.0615   6.1845   Cl        1 RES1   0.0000
    32 Cl      -6.1845   6.1845  -6.1845   Cl        1 RES1   0.0000
    33 Cl      -6.1845   6.1845  -2.0615   Cl        1 RES1   0.0000
    34 Cl      -6.1845   6.1845   2.0615   Cl        1 RES1   0.0000
    35 Cl      -6.1845   6.1845   6.1845   Cl        1 RES1   0.0000
    36 Cl      -2.0615  -2.0615  -2.0615   Cl        1 RES1   0.0000
    37 Cl      -2.0615  -2.0615   2.0615   Cl        1 RES1   0.0000
    38 Cl      -2.0615  -2.0615   6.1845   Cl        1 RES1   0.0000
    39 Cl      -2.0615   2.0615  -6.1845   Cl        1 RES1   0.0000
    40 Cl      -2.0615   2.0615   6.1845   Cl        1 RES1   0.0000
    41 Cl      -2.0615   6.1845  -6.1845   Cl        1 RES1   0.0000
    42 Cl      -2.0615   6.1845  -2.0615   Cl        1 RES1   0.0000
    43 Cl      -2.0615   6.1845   2.0615   Cl        1 RES1   0.0000
    44 Cl      -2.0615   6.1845   6.1845   Cl        1 RES1   0.0000
    45 Cl       2.0615  -2.0615  -2.0615   Cl        1 RES1   0.0000
    46 Cl       2.0615  -2.0615   2.0615   Cl        1 RES1   0.0000
    47 Cl       2.0615  -2.0615   6.1845   Cl        1 RES1   0.0000
    48 Cl       2.0615   2.0615  -6.1845   Cl        1 RES1   0.0000
    49 Cl       2.0615   2.0615   6.1845   Cl        1 RES1   0.0000
    50 Cl       2.0615   6.1845  -6.1845   Cl        1 RES1   0.0000
    51 Cl       2.0615   6.1845  -2.0615   Cl        1 RES1   0.0000
    52 Cl       2.0615   6.1845   6.1845   Cl        1 RES1   0.0000
    53 Cl       6.1845  -2.0615  -2.0615   Cl        1 RES1   0.0000
    54 Cl       6.1845  -2.0615   2.0615   Cl        1 RES1   0.0000
    55 Cl       6.1845   2.0615  -6.1845   Cl        1 RES1   0.0000
    56 Cl       6.1845   2.0615  -2.0615   Cl        1 RES1   0.0000
    57 Cl       6.1845   2.0615   2.0615   Cl        1 RES1   0.0000
    58 Cl       6.1845   2.0615   6.1845   Cl        1 RES1   0.0000
    59 Cl       6.1845   6.1845  -6.1845   Cl        1 RES1   0.0000
    60 Cl       6.1845   6.1845  -2.0615   Cl        1 RES1   0.0000
    61 Cl       6.1845   6.1845   2.0615   Cl        1 RES1   0.0000
    62 Cl       6.1845   6.1845   6.1845   Cl        1 RES1   0.0000
    63 Cs       0.0000   4.1230   4.1230   Cs        2 RES2   0.0000
    64 Cl       2.0615   2.0615   6.1845   Cl        2 RES2   0.0000
    65 Cs      -4.1230   8.2460   4.1230   Cs        2 RES2   0.0000
    66 Cl      -2.0615   6.1845   2.0615   Cl        2 RES2   0.0000
    67 Cs       4.1230   4.1230   0.0000   Cs        2 RES2   0.0000
    68 Cl       2.0615   6.1845   2.0615   Cl        2 RES2   0.0000
    69 Cs       0.0000   0.0000   0.0000   Cs        2 RES2   0.0000
    70 Cl      -2.0615   2.0615   2.0615   Cl        2 RES2   0.0000
    71 Cs       4.1230   0.0000   4.1230   Cs        2 RES2   0.0000
    72 Cs       4.1230   8.2460   4.1230   Cs        2 RES2   0.0000
    73 Cs       0.0000   4.1230   0.0000   Cs        2 RES2   0.0000
    74 Cs      -4.1230   0.0000   4.1230   Cs        2 RES2   0.0000
    75 Cl       2.0615   2.0615   2.0615   Cl        2 RES2   0.0000
    76 Cs      -4.1230   8.2460   0.0000   Cs        2 RES2   0.0000
    77 Cs       0.0000   8.2460   0.0000   Cs        2 RES2   0.0000
    78 Cs       4.1230   8.2460   0.0000   Cs        2 RES2   0.0000
    79 Cs       0.0000   8.2460   4.1230   Cs        2 RES2   0.0000
    80 Cs      -4.1230   4.1230   0.0000   Cs        2 RES2   0.0000
    81 Cs      -4.1230   4.1230   4.1230   Cs        2 RES2   0.0000
    82 Cs       4.1230   4.1230   4.1230   Cs        2 RES2   0.0000
    83 Cs       0.0000   4.1230   8.2460   Cs        2 RES2   0.0000
    84 Cs       4.1230   4.1230   8.2460   Cs        2 RES2   0.0000
    85 Cs      -4.1230   0.0000   0.0000   Cs        2 RES2   0.0000
    86 Cs       4.1230   0.0000   0.0000   Cs        2 RES2   0.0000
    87 Cs       0.0000   0.0000   4.1230   Cs        2 RES2   0.0000
    88 Cs       0.0000   0.0000   8.2460   Cs        2 RES2   0.0000
    89 Cs       4.1230   0.0000   8.2460   Cs        2 RES2   0.0000
    90 Cl      -6.1845  10.3075   2.0615   Cl        2 RES2   0.0000
    91 Cl      -2.0615  10.3075   2.0615   Cl        2 RES2   0.0000
    92 Cl       2.0615  10.3075   2.0615   Cl        2 RES2   0.0000
    93 Cl       6.1845  10.3075   2.0615   Cl        2 RES2   0.0000
    94 Cl      -6.1845  10.3075   6.1845   Cl        2 RES2   0.0000
    95 Cl      -2.0615  10.3075   6.1845   Cl        2 RES2   0.0000
    96 Cl       2.0615  10.3075   6.1845   Cl        2 RES2   0.0000
    97 Cl       6.1845  10.3075   6.1845   Cl        2 RES2   0.0000
    98 Cl      -2.0615   6.1845  -2.0615   Cl        2 RES2   0.0000
    99 Cl       2.0615   6.1845  -2.0615   Cl        2 RES2   0.0000
   100 Cl       6.1845   6.1845  -2.0615   Cl        2 RES2   0.0000
   101 Cl      -6.1845   6.1845   2.0615   Cl        2 RES2   0.0000
   102 Cl       6.1845   6.1845   2.0615   Cl        2 RES2   0.0000
   103 Cl      -6.1845   6.1845   6.1845   Cl        2 RES2   0.0000
   104 Cl      -2.0615   6.1845   6.1845   Cl        2 RES2   0.0000
   105 Cl       2.0615   6.1845   6.1845   Cl        2 RES2   0.0000
   106 Cl       6.1845   6.1845   6.1845   Cl        2 RES2   0.0000
   107 Cl      -2.0615   2.0615  -2.0615   Cl        2 RES2   0.0000
   108 Cl       2.0615   2.0615  -2.0615   Cl        2 RES2   0.0000
   109 Cl       6.1845   2.0615  -2.0615   Cl        2 RES2   0.0000
   110 Cl      -6.1845   2.0615   2.0615   Cl        2 RES2   0.0000
   111 Cl       6.1845   2.0615   2.0615   Cl        2 RES2   0.0000
   112 Cl      -6.1845   2.0615   6.1845   Cl        2 RES2   0.0000
   113 Cl      -2.0615   2.0615   6.1845   Cl        2 RES2   0.0000
   114 Cl       6.1845   2.0615   6.1845   Cl        2 RES2   0.0000
   115 Cl      -2.0615  -2.0615  -2.0615   Cl        2 RES2   0.0000
   116 Cl       2.0615  -2.0615  -2.0615   Cl        2 RES2   0.0000
   117 Cl      -6.1845  -2.0615   2.0615   Cl        2 RES2   0.0000
   118 Cl      -2.0615  -2.0615   2.0615   Cl        2 RES2   0.0000
   119 Cl       2.0615  -2.0615   2.0615   Cl        2 RES2   0.0000
   120 Cl       6.1845  -2.0615   2.0615   Cl        2 RES2   0.0000
   121 Cl      -6.1845  -2.0615   6.1845   Cl        2 RES2   0.0000
   122 Cl      -2.0615  -2.0615   6.1845   Cl        2 RES2   0.0000
   123 Cl       2.0615  -2.0615   6.1845   Cl        2 RES2   0.0000
   124 Cl       6.1845  -2.0615   6.1845   Cl        2 RES2   0.0000
   125 Cs       0.0000   0.0000   4.1230   Cs        3 RES3   0.0000
   126 Cl      -2.0615   2.0615   2.0615   Cl        3 RES3   0.0000
   127 Cs       0.0000  -4.1230   8.2460   Cs        3 RES3   0.0000
   128 Cl       2.0615  -2.0615   6.1845   Cl        3 RES3   0.0000
   129 Cs       4.1230   4.1230   4.1230   Cs        3 RES3   0.0000
   130 Cl       2.0615   2.0615   6.1845   Cl        3 RES3   0.0000
   131 Cs       4.1230   0.0000   0.0000   Cs        3 RES3   0.0000
   132 Cl       2.0615  -2.0615   2.0615   Cl        3 RES3   0.0000
   133 Cs       0.0000   4.1230   0.0000   Cs        3 RES3   0.0000
   134 Cs       0.0000   4.1230   8.2460   Cs        3 RES3   0.0000
   135 Cs       4.1230   0.0000   4.1230   Cs        3 RES3   0.0000
   136 Cs      -0.0000  -4.1230   0.0000   Cs        3 RES3   0.0000
   137 Cl       2.0615   2.0615   2.0615   Cl        3 RES3   0.0000
   138 Cs       4.1230  -4.1230   8.2460   Cs        3 RES3   0.0000
   139 Cs       4.1230   0.0000   8.2460   Cs        3 RES3   0.0000
   140 Cs       4.1230   4.1230   8.2460   Cs        3 RES3   0.0000
   141 Cs       0.0000   0.0000   8.2460   Cs        3 RES3   0.0000
   142 Cs       4.1230  -4.1230   4.1230   Cs        3 RES3   0.0000
   143 Cs       0.0000  -4.1230   4.1230   Cs        3 RES3   0.0000
   144 Cs       0.0000   4.1230   4.1230   Cs        3 RES3   0.0000
   145 Cs      -4.1230   0.0000   4.1230   Cs        3 RES3   0.0000
   146 Cs      -4.1230   4.1230   4.1230   Cs        3 RES3   0.0000
   147 Cs       4.1230  -4.1230   0.0000   Cs        3 RES3   0.0000
   148 Cs       4.1230   4.1230   0.0000   Cs        3 RES3   0.0000
   149 Cs       0.0000   0.0000   0.0000   Cs        3 RES3   0.0000
   150 Cs      -4.1230   0.0000   0.0000   Cs        3 RES3   0.0000
   151 Cs      -4.1230   4.1230   0.0000   Cs        3 RES3   0.0000
   152 Cl       2.0615  -6.1845  10.3075   Cl        3 RES3   0.0000
   153 Cl       2.0615  -2.0615  10.3075   Cl        3 RES3   0.0000
   154 Cl       2.0615   2.0615  10.3075   Cl        3 RES3   0.0000
   155 Cl       2.0615   6.1845  10.3075   Cl        3 RES3   0.0000
   156 Cl      -2.0615  -6.1845  10.3075   Cl        3 RES3   0.0000
   157 Cl      -2.0615  -2.0615  10.3075   Cl        3 RES3   0.0000
   158 Cl      -2.0615   2.0615  10.3075   Cl        3 RES3   0.0000
   159 Cl      -2.0615   6.1845  10.3075   Cl        3 RES3   0.0000
   160 Cl       6.1845  -2.0615   6.1845   Cl        3 RES3   0.0000
   161 Cl       6.1845   2.0615   6.1845   Cl        3 RES3   0.0000
   162 Cl       6.1845   6.1845   6.1845   Cl        3 RES3   0.0000
   163 Cl       2.0615  -6.1845   6.1845   Cl        3 RES3   0.0000
   164 Cl       2.0615   6.1845   6.1845   Cl        3 RES3   0.0000
   165 Cl      -2.0615  -6.1845   6.1845   Cl        3 RES3   0.0000
   166 Cl      -2.0615  -2.0615   6.1845   Cl        3 RES3   0.0000
   167 Cl      -2.0615   2.0615   6.1845   Cl        3 RES3   0.0000
   168 Cl      -2.0615   6.1845   6.1845   Cl        3 RES3   0.0000
   169 Cl       6.1845  -2.0615   2.0615   Cl        3 RES3   0.0000
   170 Cl       6.1845   2.0615   2.0615   Cl        3 RES3   0.0000
   171 Cl       6.1845   6.1845   2.0615   Cl        3 RES3   0.0000
   172 Cl       2.0615  -6.1845   2.0615   Cl        3 RES3   0.0000
   173 Cl       2.0615   6.1845   2.0615   Cl        3 RES3   0.0000
   174 Cl      -2.0615  -6.1845   2.0615   Cl        3 RES3   0.0000
   175 Cl      -2.0615  -2.0615   2.0615   Cl        3 RES3   0.0000
   176 Cl      -2.0615   6.1845   2.0615   Cl        3 RES3   0.0000
   177 Cl       6.1845  -2.0615  -2.0615   Cl        3 RES3   0.0000
   178 Cl       6.1845   2.0615  -2.0615   Cl        3 RES3   0.0000
   179 Cl       2.0615  -6.1845  -2.0615   Cl        3 RES3   0.0000
   180 Cl       2.0615  -2.0615  -2.0615   Cl        3 RES3   0.0000
   181 Cl       2.0615   2.0615  -2.0615   Cl        3 RES3   0.0000
   182 Cl       2.0615   6.1845  -2.0615   Cl        3 RES3   0.0000
   183 Cl      -2.0615  -6.1845  -2.0615   Cl        3 RES3   0.0000
   184 Cl      -2.0615  -2.0615  -2.0615   Cl        3 RES3   0.0000
   185 Cl      -2.0615   2.0615  -2.0615   Cl        3 RES3   0.0000
   186 Cl      -2.0615   6.1845  -2.0615   Cl        3 RES3   0.0000
   187 Cs       0.0000   0.0000   0.0000   Cs        4 RES4   0.0000
   188 Cl       2.0615  -2.0615   2.0615   Cl        4 RES4   0.0000
   189 Cs      -4.1230  -0.0000  -4.1230   Cs        4 RES4   0.0000
   190 Cl      -2.0615   2.0615  -2.0615   Cl        4 RES4   0.0000
   191 Cs       0.0000   4.1230   4.1230   Cs        4 RES4   0.0000
   192 Cl      -2.0615   2.0615   2.0615   Cl        4 RES4   0.0000
   193 Cs       4.1230   4.1230   0.0000   Cs        4 RES4   0.0000
   194 Cl       2.0615   2.0615  -2.0615   Cl        4 RES4   0.0000
   195 Cs       4.1230   0.0000   4.1230   Cs        4 RES4   0.0000
   196 Cs      -4.1230   0.0000   4.1230   Cs        4 RES4   0.0000
   197 Cs       0.0000   4.1230   0.0000   Cs        4 RES4   0.0000
   198 Cs       4.1230  -0.0000  -4.1230   Cs        4 RES4   0.0000
   199 Cl       2.0615   2.0615   2.0615   Cl        4 RES4   0.0000
   200 Cs      -4.1230   4.1230  -4.1230   Cs        4 RES4   0.0000
   201 Cs      -4.1230   4.1230   0.0000   Cs        4 RES4   0.0000
   202 Cs      -4.1230   4.1230   4.1230   Cs        4 RES4   0.0000
   203 Cs      -4.1230   0.0000   0.0000   Cs        4 RES4   0.0000
   204 Cs       0.0000   4.1230  -4.1230   Cs        4 RES4   0.0000
   205 Cs      -0.0000  -0.0000  -4.1230   Cs        4 RES4   0.0000
   206 Cs       0.0000   0.0000   4.1230   Cs        4 RES4   0.0000
   207 Cs      -0.0000  -4.1230   0.0000   Cs        4 RES4   0.0000
   208 Cs       0.0000  -4.1230   4.1230   Cs        4 RES4   0.0000
   209 Cs       4.1230   4.1230  -4.1230   Cs        4 RES4   0.0000
   210 Cs       4.1230   4.1230   4.1230   Cs        4 RES4   0.0000
   211 Cs       4.1230   0.0000   0.0000   Cs        4 RES4   0.0000
   212 Cs       4.1230  -4.1230   0.0000   Cs        4 RES4   0.0000
   213 Cs       4.1230  -4.1230   4.1230   Cs        4 RES4   0.0000
   214 Cl      -6.1845   2.0615  -6.1845   Cl        4 RES4   0.0000
   215 Cl      -6.1845   2.0615  -2.0615   Cl        4 RES4   0.0000
   216 Cl      -6.1845   2.0615   2.0615   Cl        4 RES4   0.0000
   217 Cl      -6.1845   2.0615   6.1845   Cl        4 RES4   0.0000
   218 Cl      -6.1845  -2.0615  -6.1845   Cl        4 RES4   0.0000
   219 Cl      -6.1845  -2.0615  -2.0615   Cl        4 RES4   0.0000
   220 Cl      -6.1845  -2.0615   2.0615   Cl        4 RES4   0.0000
   221 Cl      -6.1845  -2.0615   6.1845   Cl        4 RES4   0.0000
   222 Cl      -2.0615   6.1845  -2.0615   Cl        4 RES4   0.0000
   223 Cl      -2.0615   6.1845   2.0615   Cl        4 RES4   0.0000
   224 Cl      -2.0615   6.1845   6.1845   Cl        4 RES4   0.0000
   225 Cl      -2.0615   2.0615  -6.1845   Cl        4 RES4   0.0000
   226 Cl      -2.0615   2.0615   6.1845   Cl        4 RES4   0.0000
   227 Cl      -2.0615  -2.0615  -6.1845   Cl        4 RES4   0.0000
   228 Cl      -2.0615  -2.0615  -2.0615   Cl        4 RES4   0.0000
   229 Cl      -2.0615  -2.0615   2.0615   Cl        4 RES4   0.0000
   230 Cl      -2.0615  -2.0615   6.1845   Cl        4 RES4   0.0000
   231 Cl       2.0615   6.1845  -2.0615   Cl        4 RES4   0.0000
   232 Cl       2.0615   6.1845   2.0615   Cl        4 RES4   0.0000
   233 Cl       2.0615   6.1845   6.1845   Cl        4 RES4   0.0000
   234 Cl       2.0615   2.0615  -6.1845   Cl        4 RES4   0.0000
   235 Cl       2.0615   2.0615   6.1845   Cl        4 RES4   0.0000
   236 Cl       2.0615  -2.0615  -6.1845   Cl        4 RES4   0.0000
   237 Cl       2.0615  -2.0615  -2.0615   Cl        4 RES4   0.0000
   238 Cl       2.0615  -2.0615   6.1845   Cl        4 RES4   0.0000
   239 Cl       6.1845   6.1845  -2.0615   Cl        4 RES4   0.0000
   240 Cl       6.1845   6.1845   2.0615   Cl        4 RES4   0.0000
   241 Cl       6.1845   2.0615  -6.1845   Cl        4 RES4   0.0000
   242 Cl       6.1845   2.0615  -2.0615   Cl        4 RES4   0.0000
   243 Cl       6.1845   2.0615   2.0615   Cl        4 RES4   0.0000
   244 Cl       6.1845   2.0615   6.1845   Cl        4 RES4   0.0000
   245 Cl       6.1845  -2.0615  -6.1845   Cl        4 RES4   0.0000
   246 Cl       6.1845  -2.0615  -2.0615   Cl        4 RES4   0.0000
   247 Cl       6.1845  -2.0615   2.0615   Cl        4 RES4   0.0000
   248 Cl       6.1845  -2.0615   6.1845   Cl        4 RES4   0.0000
   249 Cs       4.1230   0.0000   0.0000   Cs        5 RES5   0.0000
   250 Cl       2.0615   2.0615  -2.0615   Cl        5 RES5   0.0000
   251 Cs       8.2460  -4.1230   0.0000   Cs        5 RES5   0.0000
   252 Cl       6.1845  -2.0615   2.0615   Cl        5 RES5   0.0000
   253 Cs       0.0000   0.0000   4.1230   Cs        5 RES5   0.0000
   254 Cl       2.0615  -2.0615   2.0615   Cl        5 RES5   0.0000
   255 Cs       4.1230   4.1230   4.1230   Cs        5 RES5   0.0000
   256 Cl       6.1845   2.0615   2.0615   Cl        5 RES5   0.0000
   257 Cs       0.0000   4.1230   0.0000   Cs        5 RES5   0.0000
   258 Cs      -0.0000  -4.1230   0.0000   Cs        5 RES5   0.0000
   259 Cs       4.1230   0.0000   4.1230   Cs        5 RES5   0.0000
   260 Cs       8.2460   4.1230   0.0000   Cs        5 RES5   0.0000
   261 Cl       2.0615   2.0615   2.0615   Cl        5 RES5   0.0000
   262 Cs       8.2460  -4.1230   4.1230   Cs        5 RES5   0.0000
   263 Cs       4.1230  -4.1230   4.1230   Cs        5 RES5   0.0000
   264 Cs       0.0000  -4.1230   4.1230   Cs        5 RES5   0.0000
   265 Cs       4.1230  -4.1230   0.0000   Cs        5 RES5   0.0000
   266 Cs       8.2460   0.0000   4.1230   Cs        5 RES5   0.0000
   267 Cs       8.2460   0.0000   0.0000   Cs        5 RES5   0.0000
   268 Cs       0.0000   0.0000   0.0000   Cs        5 RES5   0.0000
   269 Cs       4.1230  -0.0000  -4.1230   Cs        5 RES5   0.0000
   270 Cs      -0.0000  -0.0000  -4.1230   Cs        5 RES5   0.0000
   271 Cs       8.2460   4.1230   4.1230   Cs        5 RES5   0.0000
   272 Cs       0.0000   4.1230   4.1230   Cs        5 RES5   0.0000
   273 Cs       4.1230   4.1230   0.0000   Cs        5 RES5   0.0000
   274 Cs       4.1230   4.1230  -4.1230   Cs        5 RES5   0.0000
   275 Cs       0.0000   4.1230  -4.1230   Cs        5 RES5   0.0000
   276 Cl      10.3075  -6.1845   2.0615   Cl        5 RES5   0.0000
   277 Cl       6.1845  -6.1845   2.0615   Cl        5 RES5   0.0000
   278 Cl       2.0615  -6.1845   2.0615   Cl        5 RES5   0.0000
   279 Cl      -2.0615  -6.1845   2.0615   Cl        5 RES5   0.0000
   280 Cl      10.3075  -6.1845  -2.0615   Cl        5 RES5   0.0000
   281 Cl       6.1845  -6.1845  -2.0615   Cl        5 RES5   0.0000
   282 Cl       2.0615  -6.1845  -2.0615   Cl        5 RES5   0.0000
   283 Cl      -2.0615  -6.1845  -2.0615   Cl        5 RES5   0.0000
   284 Cl       6.1845  -2.0615   6.1845   Cl        5 RES5   0.0000
   285 Cl       2.0615  -2.0615   6.1845   Cl        5 RES5   0.0000
   286 Cl      -2.0615  -2.0615   6.1845   Cl        5 RES5   0.0000
   287 Cl      10.3075  -2.0615   2.0615   Cl        5 RES5   0.0000
   288 Cl      -2.0615  -2.0615   2.0615   Cl        5 RES5   0.0000
   289 Cl      10.3075  -2.0615  -2.0615   Cl        5 RES5   0.0000
   290 Cl       6.1845  -2.0615  -2.0615   Cl        5 RES5   0.0000
   291 Cl       2.0615  -2.0615  -2.0615   Cl        5 RES5   0.0000
   292 Cl      -2.0615  -2.0615  -2.0615   Cl        5 RES5   0.0000
   293 Cl       6.1845   2.0615   6.1845   Cl        5 RES5   0.0000
   294 Cl       2.0615   2.0615   6.1845   Cl        5 RES5   0.0000
   295 Cl      -2.0615   2.0615   6.1845   Cl        5 RES5   0.0000
   296 Cl      10.3075   2.0615   2.0615   Cl        5 RES5   0.0000
   297 Cl      -2.0615   2.0615   2.0615   Cl        5 RES5   0.0000
   298 Cl      10.3075   2.0615  -2.0615   Cl        5 RES5   0.0000
   299 Cl       6.1845   2.0615  -2.0615   Cl        5 RES5   0.0000
   300 Cl      -2.0615   2.0615  -2.0615   Cl        5 RES5   0.0000
   301 Cl       6.1845   6.1845   6.1845   Cl        5 RES5   0.0000
   302 Cl       2.0615   6.1845   6.1845   Cl        5 RES5   0.0000
   303 Cl      10.3075   6.1845   2.0615   Cl        5 RES5   0.0000
   304 Cl       6.1845   6.1845   2.0615   Cl        5 RES5   0.0000
   305 Cl       2.0615   6.1845   2.0615   Cl        5 RES5   0.0000
   306 Cl      -2.0615   6.1845   2.0615   Cl        5 RES5   0.0000
   307 Cl      10.3075   6.1845  -2.0615   Cl        5 RES5   0.0000
   308 Cl       6.1845   6.1845  -2.0615   Cl        5 RES5   0.0000
   309 Cl       2.0615   6.1845  -2.0615   Cl        5 RES5   0.0000
   310 Cl      -2.0615   6.1845  -2.0615   Cl        5 RES5   0.0000
   311 Cs       4.1230   4.1230   0.0000   Cs        6 RES6   0.0000
   312 Cl       6.1845   2.0615   2.0615   Cl        6 RES6   0.0000
   313 Cs       4.1230   8.2460  -4.1230   Cs        6 RES6   0.0000
   314 Cl       2.0615   6.1845  -2.0615   Cl        6 RES6   0.0000
   315 Cs       0.0000   0.0000   0.0000   Cs        6 RES6   0.0000
   316 Cl       2.0615   2.0615  -2.0615   Cl        6 RES6   0.0000
   317 Cs       0.0000   4.1230   4.1230   Cs        6 RES6   0.0000
   318 Cl       2.0615   6.1845   2.0615   Cl        6 RES6   0.0000
   319 Cs       4.1230   0.0000   4.1230   Cs        6 RES6   0.0000
   320 Cs       4.1230  -0.0000  -4.1230   Cs        6 RES6   0.0000
   321 Cs       0.0000   4.1230   0.0000   Cs        6 RES6   0.0000
   322 Cs       4.1230   8.2460   4.1230   Cs        6 RES6   0.0000
   323 Cl       2.0615   2.0615   2.0615   Cl        6 RES6   0.0000
   324 Cs       0.0000   8.2460  -4.1230   Cs        6 RES6   0.0000
   325 Cs       0.0000   4.1230  -4.1230   Cs        6 RES6   0.0000
   326 Cs      -0.0000  -0.0000  -4.1230   Cs        6 RES6   0.0000
   327 Cs       4.1230   4.1230  -4.1230   Cs        6 RES6   0.0000
   328 Cs       0.0000   8.2460   0.0000   Cs        6 RES6   0.0000
   329 Cs       4.1230   8.2460   0.0000   Cs        6 RES6   0.0000
   330 Cs       4.1230   0.0000   0.0000   Cs        6 RES6   0.0000
   331 Cs       8.2460   4.1230   0.0000   Cs        6 RES6   0.0000
   332 Cs       8.2460   0.0000   0.0000   Cs        6 RES6   0.0000
   333 Cs       0.0000   8.2460   4.1230   Cs        6 RES6   0.0000
   334 Cs       0.0000   0.0000   4.1230   Cs        6 RES6   0.0000
   335 Cs       4.1230   4.1230   4.1230   Cs        6 RES6   0.0000
   336 Cs       8.2460   4.1230   4.1230   Cs        6 RES6   0.0000
   337 Cs       8.2460   0.0000   4.1230   Cs        6 RES6   0.0000
   338 Cl       2.0615  10.3075  -6.1845   Cl        6 RES6   0.0000
   339 Cl       2.0615   6.1845  -6.1845   Cl        6 RES6   0.0000
   340 Cl       2.0615   2.0615  -6.1845   Cl        6 RES6   0.0000
   341 Cl       2.0615  -2.0615  -6.1845   Cl        6 RES6   0.0000
   342 Cl       6.1845  10.3075  -6.1845   Cl        6 RES6   0.0000
   343 Cl       6.1845   6.1845  -6.1845   Cl        6 RES6   0.0000
   344 Cl       6.1845   2.0615  -6.1845   Cl        6 RES6   0.0000
   345 Cl       6.1845  -2.0615  -6.1845   Cl        6 RES6   0.0000
   346 Cl      -2.0615   6.1845  -2.0615   Cl        6 RES6   0.0000
   347 Cl      -2.0615   2.0615  -2.0615   Cl        6 RES6   0.0000
   348 Cl      -2.0615  -2.0615  -2.0615   Cl        6 RES6   0.0000
   349 Cl       2.0615  10.3075  -2.0615   Cl        6 RES6   0.0000
   350 Cl       2.0615  -2.0615  -2.0615   Cl        6 RES6   0.0000
   351 Cl       6.1845  10.3075  -2.0615   Cl        6 RES6   0.0000
   352 Cl       6.1845   6.1845  -2.0615   Cl        6 RES6   0.0000
   353 Cl       6.1845   2.0615  -2.0615   Cl        6 RES6   0.0000
   354 Cl       6.1845  -2.0615  -2.0615   Cl        6 RES6   0.0000
   355 Cl      -2.0615   6.1845   2.0615   Cl        6 RES6   0.0000
   356 Cl      -2.0615   2.0615   2.0615   Cl        6 RES6   0.0000
   357 Cl      -2.0615  -2.0615   2.0615   Cl        6 RES6   0.0000
   358 Cl       2.0615  10.3075   2.0615   Cl        6 RES6   0.0000
   359 Cl       2.0615  -2.0615   2.0615   Cl        6 RES6   0.0000
   360 Cl       6.1845  10.3075   2.0615   Cl        6 RES6   0.0000
   361 Cl       6.1845   6.1845   2.0615   Cl        6 RES6   0.0000
   362 Cl       6.1845  -2.0615   2.0615   Cl        6 RES6   0.0000
   363 Cl      -2.0615   6.1845   6.1845   Cl        6 RES6   0.0000
   364 Cl      -2.0615   2.0615   6.1845   Cl        6 RES6   0.0000
   365 Cl       2.0615  10.3075   6.1845   Cl        6 RES6   0.0000
   366 Cl       2.0615   6.1845   6.1845   Cl        6 RES6   0.0000
   367 Cl       2.0615   2.0615   6.1845   Cl        6 RES6   0.0000
   368 Cl       2.0615  -2.0615   6.1845   Cl        6 RES6   0.0000
   369 Cl       6.1845  10.3075   6.1845   Cl        6 RES6   0.0000
   370 Cl       6.1845   6.1845   6.1845   Cl        6 RES6   0.0000
   371 Cl       6.1845   2.0615   6.1845   Cl        6 RES6   0.0000
   372 Cl       6.1845  -2.0615   6.1845   Cl        6 RES6   0.0000
   373 Cs       4.1230   4.1230   4.1230   Cs        7 RES7   0.0000
   374 Cl       2.0615   6.1845   2.0615   Cl        7 RES7   0.0000
   375 Cs       8.2460   4.1230   8.2460   Cs        7 RES7   0.0000
   376 Cl       6.1845   2.0615   6.1845   Cl        7 RES7   0.0000
   377 Cs       4.1230   0.0000   0.0000   Cs        7 RES7   0.0000
   378 Cl       6.1845   2.0615   2.0615   Cl        7 RES7   0.0000
   379 Cs       0.0000   0.0000   4.1230   Cs        7 RES7   0.0000
   380 Cl       2.0615   2.0615   6.1845   Cl        7 RES7   0.0000
   381 Cs       0.0000   4.1230   0.0000   Cs        7 RES7   0.0000
   382 Cs       8.2460   4.1230   0.0000   Cs        7 RES7   0.0000
   383 Cs       4.1230   0.0000   4.1230   Cs        7 RES7   0.0000
   384 Cs       0.0000   4.1230   8.2460   Cs        7 RES7   0.0000
   385 Cl       2.0615   2.0615   2.0615   Cl        7 RES7   0.0000
   386 Cs       8.2460   0.0000   8.2460   Cs        7 RES7   0.0000
   387 Cs       8.2460   0.0000   4.1230   Cs        7 RES7   0.0000
   388 Cs       8.2460   0.0000   0.0000   Cs        7 RES7   0.0000
   389 Cs       8.2460   4.1230   4.1230   Cs        7 RES7   0.0000
   390 Cs       4.1230   0.0000   8.2460   Cs        7 RES7   0.0000
   391 Cs       4.1230   4.1230   8.2460   Cs        7 RES7   0.0000
   392 Cs       4.1230   4.1230   0.0000   Cs        7 RES7   0.0000
   393 Cs       4.1230   8.2460   4.1230   Cs        7 RES7   0.0000
   394 Cs       4.1230   8.2460   0.0000   Cs        7 RES7   0.0000
   395 Cs       0.0000   0.0000   8.2460   Cs        7 RES7   0.0000
   396 Cs       0.0000   0.0000   0.0000   Cs        7 RES7   0.0000
   397 Cs       0.0000   4.1230   4.1230   Cs        7 RES7   0.0000
   398 Cs       0.0000   8.2460   4.1230   Cs        7 RES7   0.0000
   399 Cs       0.0000   8.2460   0.0000   Cs        7 RES7   0.0000
   400 Cl      10.3075   2.0615  10.3075   Cl        7 RES7   0.0000
   401 Cl      10.3075   2.0615   6.1845   Cl        7 RES7   0.0000
   402 Cl      10.3075   2.0615   2.0615   Cl        7 RES7   0.0000
   403 Cl      10.3075   2.0615  -2.0615   Cl        7 RES7   0.0000
   404 Cl      10.3075   6.1845  10.3075   Cl        7 RES7   0.0000
   405 Cl      10.3075   6.1845   6.1845   Cl        7 RES7   0.0000
   406 Cl      10.3075   6.1845   2.0615   Cl        7 RES7   0.0000
   407 Cl      10.3075   6.1845  -2.0615   Cl        7 RES7   0.0000
   408 Cl       6.1845  -2.0615   6.1845   Cl        7 RES7   0.0000
   409 Cl       6.1845  -2.0615   2.0615   Cl        7 RES7   0.0000
   410 Cl       6.1845  -2.0615  -2.0615   Cl        7 RES7   0.0000
   411 Cl       6.1845   2.0615  10.3075   Cl        7 RES7   0.0000
   412 Cl       6.1845   2.0615  -2.0615   Cl        7 RES7   0.0000
   413 Cl       6.1845   6.1845  10.3075   Cl        7 RES7   0.0000
   414 Cl       6.1845   6.1845   6.1845   Cl        7 RES7   0.0000
   415 Cl       6.1845   6.1845   2.0615   Cl        7 RES7   0.0000
   416 Cl       6.1845   6.1845  -2.0615   Cl        7 RES7   0.0000
   417 Cl       2.0615  -2.0615   6.1845   Cl        7 RES7   0.0000
   418 Cl       2.0615  -2.0615   2.0615   Cl        7 RES7   0.0000
   419 Cl       2.0615  -2.0615  -2.0615   Cl        7 RES7   0.0000
   420 Cl       2.0615   2.0615  10.3075   Cl        7 RES7   0.0000
   421 Cl       2.0615   2.0615  -2.0615   Cl        7 RES7   0.0000
   422 Cl       2.0615   6.1845  10.3075   Cl        7 RES7   0.0000
   423 Cl       2.0615   6.1845   6.1845   Cl        7 RES7   0.0000
   424 Cl       2.0615   6.1845  -2.0615   Cl        7 RES7   0.0000
   425 Cl      -2.0615  -2.0615   6.1845   Cl        7 RES7   0.0000
   426 Cl      -2.0615  -2.0615   2.0615   Cl        7 RES7   0.0000
   427 Cl      -2.0615   2.0615  10.3075   Cl        7 RES7   0.0000
   428 Cl      -2.0615   2.0615   6.1845   Cl        7 RES7   0.0000
   429 Cl      -2.0615   2.0615   2.0615   Cl        7 RES7   0.0000
   430 Cl      -2.0615   2.0615  -2.0615   Cl        7 RES7   0.0000
   431 Cl      -2.0615   6.1845  10.3075   Cl        7 RES7   0.0000
   432 Cl      -2.0615   6.1845   6.1845   Cl        7 RES7   0.0000
   433 Cl      -2.0615   6.1845   2.0615   Cl        7 RES7   0.0000
   434 Cl      -2.0615   6.1845  -2.0615   Cl        7 RES7   0.0000
   435 Cs       0.0000   4.1230   0.0000   Cs        8 RES8   0.0000
   436 Cl       2.0615   2.0615  -2.0615   Cl        8 RES8   0.0000
   437 Cs      -4.1230   8.2460   0.0000   Cs        8 RES8   0.0000
   438 Cl      -2.0615   6.1845   2.0615   Cl        8 RES8   0.0000
   439 Cs       0.0000   0.0000   4.1230   Cs        8 RES8   0.0000
   440 Cl      -2.0615   2.0615   2.0615   Cl        8 RES8   0.0000
   441 Cs       4.1230   4.1230   4.1230   Cs        8 RES8   0.0000
   442 Cl       2.0615   6.1845   2.0615   Cl        8 RES8   0.0000
   443 Cs       4.1230   0.0000   0.0000   Cs        8 RES8   0.0000
   444 Cs      -4.1230   0.0000   0.0000   Cs        8 RES8   0.0000
   445 Cs       0.0000   4.1230   4.1230   Cs        8 RES8   0.0000
   446 Cs       4.1230   8.2460   0.0000   Cs        8 RES8   0.0000
   447 Cl       2.0615   2.0615   2.0615   Cl        8 RES8   0.0000
   448 Cs      -4.1230   8.2460   4.1230   Cs        8 RES8   0.0000
   449 Cs      -4.1230   4.1230   4.1230   Cs        8 RES8   0.0000
   450 Cs      -4.1230   0.0000   4.1230   Cs        8 RES8   0.0000
   451 Cs      -4.1230   4.1230   0.0000   Cs        8 RES8   0.0000
   452 Cs       0.0000   8.2460   4.1230   Cs        8 RES8   0.0000
   453 Cs       0.0000   8.2460   0.0000   Cs        8 RES8   0.0000
   454 Cs       0.0000   0.0000   0.0000   Cs        8 RES8   0.0000
   455 Cs       0.0000   4.1230  -4.1230   Cs        8 RES8   0.0000
   456 Cs      -0.0000  -0.0000  -4.1230   Cs        8 RES8   0.0000
   457 Cs       4.1230   8.2460   4.1230   Cs        8 RES8   0.0000
   458 Cs       4.1230   0.0000   4.1230   Cs        8 RES8   0.0000
   459 Cs       4.1230   4.1230   0.0000   Cs        8 RES8   0.0000
   460 Cs       4.1230   4.1230  -4.1230   Cs        8 RES8   0.0000
   461 Cs       4.1230  -0.0000  -4.1230   Cs        8 RES8   0.0000
   462 Cl      -6.1845  10.3075   2.0615   Cl        8 RES8   0.0000
   463 Cl      -6.1845   6.1845   2.0615   Cl        8 RES8   0.0000
   464 Cl      -6.1845   2.0615   2.0615   Cl        8 RES8   0.0000
   465 Cl      -6.1845  -2.0615   2.0615   Cl        8 RES8   0.0000
   466 Cl      -6.1845  10.3075  -2.0615   Cl        8 RES8   0.0000
   467 Cl      -6.1845   6.1845  -2.0615   Cl        8 RES8   0.0000
   468 Cl      -6.1845   2.0615  -2.0615   Cl        8 RES8   0.0000
   469 Cl      -6.1845  -2.0615  -2.0615   Cl        8 RES8   0.0000
   470 Cl      -2.0615   6.1845   6.1845   Cl        8 RES8   0.0000
   471 Cl      -2.0615   2.0615   6.1845   Cl        8 RES8   0.0000
   472 Cl      -2.0615  -2.0615   6.1845   Cl        8 RES8   0.0000
   473 Cl      -2.0615  10.3075   2.0615   Cl        8 RES8   0.0000
   474 Cl      -2.0615  -2.0615   2.0615   Cl        8 RES8   0.0000
   475 Cl      -2.0615  10.3075  -2.0615   Cl        8 RES8   0.0000
   476 Cl      -2.0615   6.1845  -2.0615   Cl        8 RES8   0.0000
   477 Cl      -2.0615   2.0615  -2.0615   Cl        8 RES8   0.0000
   478 Cl      -2.0615  -2.0615  -2.0615   Cl        8 RES8   0.0000
   479 Cl       2.0615   6.1845   6.1845   Cl        8 RES8   0.0000
   480 Cl       2.0615   2.0615   6.1845   Cl        8 RES8   0.0000
   481 Cl       2.0615  -2.0615   6.1845   Cl        8 RES8   0.0000
   482 Cl       2.0615  10.3075   2.0615   Cl        8 RES8   0.0000
   483 Cl       2.0615  -2.0615   2.0615   Cl        8 RES8   0.0000
   484 Cl       2.0615  10.3075  -2.0615   Cl        8 RES8   0.0000
   485 Cl       2.0615   6.1845  -2.0615   Cl        8 RES8   0.0000
   486 Cl       2.0615  -2.0615  -2.0615   Cl        8 RES8   0.0000
   487 Cl       6.1845   6.1845   6.1845   Cl        8 RES8   0.0000
   488 Cl       6.1845   2.0615   6.1845   Cl        8 RES8   0.0000
   489 Cl       6.1845  10.3075   2.0615   Cl        8 RES8   0.0000
   490 Cl       6.1845   6.1845   2.0615   Cl        8 RES8   0.0000
   491 Cl       6.1845   2.0615   2.0615   Cl        8 RES8   0.0000
   492 Cl       6.1845  -2.0615   2.0615   Cl        8 RES8   0.0000
   493 Cl       6.1845  10.3075  -2.0615   Cl        8 RES8   0.0000
   494 Cl       6.1845   6.1845  -2.0615   Cl        8 RES8   0.0000
   495 Cl       6.1845   2.0615  -2.0615   Cl        8 RES8   0.0000
   496 Cl       6.1845  -2.0615  -2.0615   Cl        8 RES8   0.0000
   497 Cs       4.1230   4.1230   0.0000   Cs        9 RES9   0.0000
   498 Cl       2.0615   6.1845   2.0615   Cl        9 RES9   0.0000
   499 Cs       8.2460   4.1230  -4.1230   Cs        9 RES9   0.0000
   500 Cl       6.1845   2.0615  -2.0615   Cl        9 RES9   0.0000
   501 Cs       0.0000   0.0000   0.0000   Cs        9 RES9   0.0000
   502 Cl       2.0615   2.0615  -2.0615   Cl        9 RES9   0.0000
   503 Cs       4.1230   0.0000   4.1230   Cs        9 RES9   0.0000
   504 Cl       6.1845   2.0615   2.0615   Cl        9 RES9   0.0000
   505 Cs       0.0000   4.1230   4.1230   Cs        9 RES9   0.0000
   506 Cs       0.0000   4.1230  -4.1230   Cs        9 RES9   0.0000
   507 Cs       4.1230   0.0000   0.0000   Cs        9 RES9   0.0000
   508 Cs       8.2460   4.1230   4.1230   Cs        9 RES9   0.0000
   509 Cl       2.0615   2.0615   2.0615   Cl        9 RES9   0.0000
   510 Cs       8.2460  -0.0000  -4.1230   Cs        9 RES9   0.0000
   511 Cs       4.1230  -0.0000  -4.1230   Cs        9 RES9   0.0000
   512 Cs      -0.0000  -0.0000  -4.1230   Cs        9 RES9   0.0000
   513 Cs       4.1230   4.1230  -4.1230   Cs        9 RES9   0.0000
   514 Cs       8.2460   0.0000   0.0000   Cs        9 RES9   0.0000
   515 Cs       8.2460   4.1230   0.0000   Cs        9 RES9   0.0000
   516 Cs       0.0000   4.1230   0.0000   Cs        9 RES9   0.0000
   517 Cs       4.1230   8.2460   0.0000   Cs        9 RES9   0.0000
   518 Cs       0.0000   8.2460   0.0000   Cs        9 RES9   0.0000
   519 Cs       8.2460   0.0000   4.1230   Cs        9 RES9   0.0000
   520 Cs       0.0000   0.0000   4.1230   Cs        9 RES9   0.0000
   521 Cs       4.1230   4.1230   4.1230   Cs        9 RES9   0.0000
   522 Cs       4.1230   8.2460   4.1230   Cs        9 RES9   0.0000
   523 Cs       0.0000   8.2460   4.1230   Cs        9 RES9   0.0000
   524 Cl      10.3075   2.0615  -6.1845   Cl        9 RES9   0.0000
   525 Cl       6.1845   2.0615  -6.1845   Cl        9 RES9   0.0000
   526 Cl       2.0615   2.0615  -6.1845   Cl        9 RES9   0.0000
   527 Cl      -2.0615   2.0615  -6.1845   Cl        9 RES9   0.0000
   528 Cl      10.3075   6.1845  -6.1845   Cl        9 RES9   0.0000
   529 Cl       6.1845   6.1845  -6.1845   Cl        9 RES9   0.0000
   530 Cl       2.0615   6.1845  -6.1845   Cl        9 RES9   0.0000
   531 Cl      -2.0615   6.1845  -6.1845   Cl        9 RES9   0.0000
   532 Cl       6.1845  -2.0615  -2.0615   Cl        9 RES9   0.0000
   533 Cl       2.0615  -2.0615  -2.0615   Cl        9 RES9   0.0000
   534 Cl      -2.0615  -2.0615  -2.0615   Cl        9 RES9   0.0000
   535 Cl      10.3075   2.0615  -2.0615   Cl        9 RES9   0.0000
   536 Cl      -2.0615   2.0615  -2.0615   Cl        9 RES9   0.0000
   537 Cl      10.3075   6.1845  -2.0615   Cl        9 RES9   0.0000
   538 Cl       6.1845   6.1845  -2.0615   Cl        9 RES9   0.0000
   539 Cl       2.0615   6.1845  -2.0615   Cl        9 RES9   0.0000
   540 Cl      -2.0615   6.1845  -2.0615   Cl        9 RES9   0.0000
   541 Cl       6.1845  -2.0615   2.0615   Cl        9 RES9   0.0000
   542 Cl       2.0615  -2.0615   2.0615   Cl        9 RES9   0.0000
   543 Cl      -2.0615  -2.0615   2.0615   Cl        9 RES9   0.0000
   544 Cl      10.3075   2.0615   2.0615   Cl        9 RES9   0.0000
   545 Cl      -2.0615   2.0615   2.0615   Cl        9 RES9   0.0000
   546 Cl      10.3075   6.1845   2.0615   Cl        9 RES9   0.0000
   547 Cl       6.1845   6.1845   2.0615   Cl        9 RES9   0.0000
   548 Cl      -2.0615   6.1845   2.0615   Cl        9 RES9   0.0000
   549 Cl       6.1845  -2.0615   6.1845   Cl        9 RES9   0.0000
   550 Cl       2.0615  -2.0615   6.1845   Cl        9 RES9   0.0000
   551 Cl      10.3075   2.0615   6.1845   Cl        9 RES9   0.0000
   552 Cl       6.1845   2.0615   6.1845   Cl        9 RES9   0.0000
   553 Cl       2.0615   2.0615   6.1845   Cl        9 RES9   0.0000
   554 Cl      -2.0615   2.0615   6.1845   Cl        9 RES9   0.0000
   555 Cl      10.3075   6.1845   6.1845   Cl        9 RES9   0.0000
   556 Cl       6.1845   6.1845   6.1845   Cl        9 RES9   0.0000
   557 Cl       2.0615   6.1845   6.1845   Cl        9 RES9   0.0000
   558 Cl      -2.0615   6.1845   6.1845   Cl        9 RES9   0.0000
   559 Cs       4.1230   4.1230   4.1230   Cs       10 RES10   0.0000
   560 Cl       6.1845   2.0615   2.0615   Cl       10 RES10   0.0000
   561 Cs       4.1230   8.2460   8.2460   Cs       10 RES10   0.0000
   562 Cl       2.0615   6.1845   6.1845   Cl       10 RES10   0.0000
   563 Cs       0.0000   4.1230   0.0000   Cs       10 RES10   0.0000
   564 Cl       2.0615   6.1845   2.0615   Cl       10 RES10   0.0000
   565 Cs       0.0000   0.0000   4.1230   Cs       10 RES10   0.0000
   566 Cl       2.0615   2.0615   6.1845   Cl       10 RES10   0.0000
   567 Cs       4.1230   0.0000   0.0000   Cs       10 RES10   0.0000
   568 Cs       4.1230   8.2460   0.0000   Cs       10 RES10   0.0000
   569 Cs       0.0000   4.1230   4.1230   Cs       10 RES10   0.0000
   570 Cs       4.1230   0.0000   8.2460   Cs       10 RES10   0.0000
   571 Cl       2.0615   2.0615   2.0615   Cl       10 RES10   0.0000
   572 Cs       0.0000   8.2460   8.2460   Cs       10 RES10   0.0000
   573 Cs       0.0000   8.2460   4.1230   Cs       10 RES10   0.0000
   574 Cs       0.0000   8.2460   0.0000   Cs       10 RES10   0.0000
   575 Cs       4.1230   8.2460   4.1230   Cs       10 RES10   0.0000
   576 Cs       0.0000   4.1230   8.2460   Cs       10 RES10   0.0000
   577 Cs       4.1230   4.1230   8.2460   Cs       10 RES10   0.0000
   578 Cs       4.1230   4.1230   0.0000   Cs       10 RES10   0.0000
   579 Cs       8.2460   4.1230   4.1230   Cs       10 RES10   0.0000
   580 Cs       8.2460   4.1230   0.0000   Cs       10 RES10   0.0000
   581 Cs       0.0000   0.0000   8.2460   Cs       10 RES10   0.0000
   582 Cs       0.0000   0.0000   0.0000   Cs       10 RES10   0.0000
   583 Cs       4.1230   0.0000   4.1230   Cs       10 RES10   0.0000
   584 Cs       8.2460   0.0000   4.1230   Cs       10 RES10   0.0000
   585 Cs       8.2460   0.0000   0.0000   Cs       10 RES10   0.0000
   586 Cl       2.0615  10.3075  10.3075   Cl       10 RES10   0.0000
   587 Cl       2.0615  10.3075   6.1845   Cl       10 RES10   0.0000
   588 Cl       2.0615  10.3075   2.0615   Cl       10 RES10   0.0000
   589 Cl       2.0615  10.3075  -2.0615   Cl       10 RES10   0.0000
   590 Cl       6.1845  10.3075  10.3075   Cl       10 RES10   0.0000
   591 Cl       6.1845  10.3075   6.1845   Cl       10 RES10   0.0000
   592 Cl       6.1845  10.3075   2.0615   Cl       10 RES10   0.0000
   593 Cl       6.1845  10.3075  -2.0615   Cl       10 RES10   0.0000
   594 Cl      -2.0615   6.1845   6.1845   Cl       10 RES10   0.0000
   595 Cl      -2.0615   6.1845   2.0615   Cl       10 RES10   0.0000
   596 Cl      -2.0615   6.1845  -2.0615   Cl       10 RES10   0.0000
   597 Cl       2.0615   6.1845  10.3075   Cl       10 RES10   0.0000
   598 Cl       2.0615   6.1845  -2.0615   Cl       10 RES10   0.0000
   599 Cl       6.1845   6.1845  10.3075   Cl       10 RES10   0.0000
   600 Cl       6.1845   6.1845   6.1845   Cl       10 RES10   0.0000
   601 Cl       6.1845   6.1845   2.0615   Cl       10 RES10   0.0000
   602 Cl       6.1845   6.1845  -2.0615   Cl       10 RES10   0.0000
   603 Cl      -2.0615   2.0615   6.1845   Cl       10 RES10   0.0000
   604 Cl      -2.0615   2.0615   2.0615   Cl       10 RES10   0.0000
   605 Cl      -2.0615   2.0615  -2.0615   Cl       10 RES10   0.0000
   606 Cl       2.0615   2.0615  10.3075   Cl       10 RES10   0.0000
   607 Cl       2.0615   2.0615  -2.0615   Cl       10 RES10   0.0000
   608 Cl       6.1845   2.0615  10.3075   Cl       10 RES10   0.0000
   609 Cl       6.1845   2.0615   6.1845   Cl       10 RES10   0.0000
   610 Cl       6.1845   2.0615  -2.0615   Cl       10 RES10   0.0000
   611 Cl      -2.0615  -2.0615   6.1845   Cl       10 RES10   0.0000
   612 Cl      -2.0615  -2.0615   2.0615   Cl       10 RES10   0.0000
   613 Cl       2.0615  -2.0615  10.3075   Cl       10 RES10   0.0000
   614 Cl       2.0615  -2.0615   6.1845   Cl       10 RES10   0.0000
   615 Cl       2.0615  -2.0615   2.0615   Cl       10 RES10   0.0000
   616 Cl       2.0615  -2.0615  -2.0615   Cl       10 RES10   0.0000
   617 Cl       6.1845  -2.0615  10.3075   Cl       10 RES10   0.0000
   618 Cl       6.1845  -2.0615   6.1845   Cl       10 RES10   0.0000
   619 Cl       6.1845  -2.0615   2.0615   Cl       10 RES10   0.0000
   620 Cl       6.1845  -2.0615  -2.0615   Cl       10 RES10   0.0000
   621 Cs       4.1230   0.0000   4.1230   Cs       11 RES11   0.0000
   622 Cl       2.0615   2.0615   6.1845   Cl       11 RES11   0.0000
   623 Cs       8.2460  -4.1230   4.1230   Cs       11 RES11   0.0000
   624 Cl       6.1845  -2.0615   2.0615   Cl       11 RES11   0.0000
   625 Cs       4.1230   4.1230   0.0000   Cs       11 RES11   0.0000
   626 Cl       6.1845   2.0615   2.0615   Cl       11 RES11   0.0000
   627 Cs       0.0000   0.0000   0.0000   Cs       11 RES11   0.0000
   628 Cl       2.0615  -2.0615   2.0615   Cl       11 RES11   0.0000
   629 Cs       0.0000   4.1230   4.1230   Cs       11 RES11   0.0000
   630 Cs       8.2460   4.1230   4.1230   Cs       11 RES11   0.0000
   631 Cs       4.1230   0.0000   0.0000   Cs       11 RES11   0.0000
   632 Cs       0.0000  -4.1230   4.1230   Cs       11 RES11   0.0000
   633 Cl       2.0615   2.0615   2.0615   Cl       11 RES11   0.0000
   634 Cs       8.2460  -4.1230   0.0000   Cs       11 RES11   0.0000
   635 Cs       8.2460   0.0000   0.0000   Cs       11 RES11   0.0000
   636 Cs       8.2460   4.1230   0.0000   Cs       11 RES11   0.0000
   637 Cs       8.2460   0.0000   4.1230   Cs       11 RES11   0.0000
   638 Cs       4.1230  -4.1230   0.0000   Cs       11 RES11   0.0000
   639 Cs       4.1230  -4.1230   4.1230   Cs       11 RES11   0.0000
   640 Cs       4.1230   4.1230   4.1230   Cs       11 RES11   0.0000
   641 Cs       4.1230   0.0000   8.2460   Cs       11 RES11   0.0000
   642 Cs       4.1230   4.1230   8.2460   Cs       11 RES11   0.0000
   643 Cs      -0.0000  -4.1230   0.0000   Cs       11 RES11   0.0000
   644 Cs       0.0000   4.1230   0.0000   Cs       11 RES11   0.0000
   645 Cs       0.0000   0.0000   4.1230   Cs       11 RES11   0.0000
   646 Cs       0.0000   0.0000   8.2460   Cs       11 RES11   0.0000
   647 Cs       0.0000   4.1230   8.2460   Cs       11 RES11   0.0000
   648 Cl      10.3075  -6.1845   2.0615   Cl       11 RES11   0.0000
   649 Cl      10.3075  -2.0615   2.0615   Cl       11 RES11   0.0000
   650 Cl      10.3075   2.0615   2.0615   Cl       11 RES11   0.0000
   651 Cl      10.3075   6.1845   2.0615   Cl       11 RES11   0.0000
   652 Cl      10.3075  -6.1845   6.1845   Cl       11 RES11   0.0000
   653 Cl      10.3075  -2.0615   6.1845   Cl       11 RES11   0.0000
   654 Cl      10.3075   2.0615   6.1845   Cl       11 RES11   0.0000
   655 Cl      10.3075   6.1845   6.1845   Cl       11 RES11   0.0000
   656 Cl       6.1845  -2.0615  -2.0615   Cl       11 RES11   0.0000
   657 Cl       6.1845   2.0615  -2.0615   Cl       11 RES11   0.0000
   658 Cl       6.1845   6.1845  -2.0615   Cl       11 RES11   0.0000
   659 Cl       6.1845  -6.1845   2.0615   Cl       11 RES11   0.0000
   660 Cl       6.1845   6.1845   2.0615   Cl       11 RES11   0.0000
   661 Cl       6.1845  -6.1845   6.1845   Cl       11 RES11   0.0000
   662 Cl       6.1845  -2.0615   6.1845   Cl       11 RES11   0.0000
   663 Cl       6.1845   2.0615   6.1845   Cl       11 RES11   0.0000
   664 Cl       6.1845   6.1845   6.1845   Cl       11 RES11   0.0000
   665 Cl       2.0615  -2.0615  -2.0615   Cl       11 RES11   0.0000
   666 Cl       2.0615   2.0615  -2.0615   Cl       11 RES11   0.0000
   667 Cl       2.0615   6.1845  -2.0615   Cl       11 RES11   0.0000
   668 Cl       2.0615  -6.1845   2.0615   Cl       11 RES11   0.0000
   669 Cl       2.0615   6.1845   2.0615   Cl       11 RES11   0.0000
   670 Cl       2.0615  -6.1845   6.1845   Cl       11 RES11   0.0000
   671 Cl       2.0615  -2.0615   6.1845   Cl       11 RES11   0.0000
   672 Cl       2.0615   6.1845   6.1845   Cl       11 RES11   0.0000
   673 Cl      -2.0615  -2.0615  -2.0615   Cl       11 RES11   0.0000
   674 Cl      -2.0615   2.0615  -2.0615   Cl       11 RES11   0.0000
   675 Cl      -2.0615  -6.1845   2.0615   Cl       11 RES11   0.0000
   676 Cl      -2.0615  -2.0615   2.0615   Cl       11 RES11   0.0000
   677 Cl      -2.0615   2.0615   2.0615   Cl       11 RES11   0.0000
   678 Cl      -2.0615   6.1845   2.0615   Cl       11 RES11   0.0000
   679 Cl      -2.0615  -6.1845   6.1845   Cl       11 RES11   0.0000
   680 Cl      -2.0615  -2.0615   6.1845   Cl       11 RES11   0.0000
   681 Cl      -2.0615   2.0615   6.1845   Cl       11 RES11   0.0000
   682 Cl      -2.0615   6.1845   6.1845   Cl       11 RES11   0.0000
   683 Cs       0.0000   0.0000   4.1230   Cs       12 RES12   0.0000
   684 Cl       2.0615  -2.0615   2.0615   Cl       12 RES12   0.0000
   685 Cs      -4.1230   0.0000   8.2460   Cs       12 RES12   0.0000
   686 Cl      -2.0615   2.0615   6.1845   Cl       12 RES12   0.0000
   687 Cs       4.1230   4.1230   4.1230   Cs       12 RES12   0.0000
   688 Cl       2.0615   2.0615   6.1845   Cl       12 RES12   0.0000
   689 Cs       0.0000   4.1230   0.0000   Cs       12 RES12   0.0000
   690 Cl      -2.0615   2.0615   2.0615   Cl       12 RES12   0.0000
   691 Cs       4.1230   0.0000   0.0000   Cs       12 RES12   0.0000
   692 Cs       4.1230   0.0000   8.2460   Cs       12 RES12   0.0000
   693 Cs       0.0000   4.1230   4.1230   Cs       12 RES12   0.0000
   694 Cs      -4.1230   0.0000   0.0000   Cs       12 RES12   0.0000
   695 Cl       2.0615   2.0615   2.0615   Cl       12 RES12   0.0000
   696 Cs      -4.1230   4.1230   8.2460   Cs       12 RES12   0.0000
   697 Cs       0.0000   4.1230   8.2460   Cs       12 RES12   0.0000
   698 Cs       4.1230   4.1230   8.2460   Cs       12 RES12   0.0000
   699 Cs       0.0000   0.0000   8.2460   Cs       12 RES12   0.0000
   700 Cs      -4.1230   4.1230   4.1230   Cs       12 RES12   0.0000
   701 Cs      -4.1230   0.0000   4.1230   Cs       12 RES12   0.0000
   702 Cs       4.1230   0.0000   4.1230   Cs       12 RES12   0.0000
   703 Cs       0.0000  -4.1230   4.1230   Cs       12 RES12   0.0000
   704 Cs       4.1230  -4.1230   4.1230   Cs       12 RES12   0.0000
   705 Cs      -4.1230   4.1230   0.0000   Cs       12 RES12   0.0000
   706 Cs       4.1230   4.1230   0.0000   Cs       12 RES12   0.0000
   707 Cs       0.0000   0.0000   0.0000   Cs       12 RES12   0.0000
   708 Cs      -0.0000  -4.1230   0.0000   Cs       12 RES12   0.0000
   709 Cs       4.1230  -4.1230   0.0000   Cs       12 RES12   0.0000
   710 Cl      -6.1845   2.0615  10.3075   Cl       12 RES12   0.0000
   711 Cl      -2.0615   2.0615  10.3075   Cl       12 RES12   0.0000
   712 Cl       2.0615   2.0615  10.3075   Cl       12 RES12   0.0000
   713 Cl       6.1845   2.0615  10.3075   Cl       12 RES12   0.0000
   714 Cl      -6.1845  -2.0615  10.3075   Cl       12 RES12   0.0000
   715 Cl      -2.0615  -2.0615  10.3075   Cl       12 RES12   0.0000
   716 Cl       2.0615  -2.0615  10.3075   Cl       12 RES12   0.0000
   717 Cl       6.1845  -2.0615  10.3075   Cl       12 RES12   0.0000
   718 Cl      -2.0615   6.1845   6.1845   Cl       12 RES12   0.0000
   719 Cl       2.0615   6.1845   6.1845   Cl       12 RES12   0.0000
   720 Cl       6.1845   6.1845   6.1845   Cl       12 RES12   0.0000
   721 Cl      -6.1845   2.0615   6.1845   Cl       12 RES12   0.0000
   722 Cl       6.1845   2.0615   6.1845   Cl       12 RES12   0.0000
   723 Cl      -6.1845  -2.0615   6.1845   Cl       12 RES12   0.0000
   724 Cl      -2.0615  -2.0615   6.1845   Cl       12 RES12   0.0000
   725 Cl       2.0615  -2.0615   6.1845   Cl       12 RES12   0.0000
   726 Cl       6.1845  -2.0615   6.1845   Cl       12 RES12   0.0000
   727 Cl      -2.0615   6.1845   2.0615   Cl       12 RES12   0.0000
   728 Cl       2.0615   6.1845   2.0615   Cl       12 RES12   0.0000
   729 Cl       6.1845   6.1845   2.0615   Cl       12 RES12   0.0000
   730 Cl      -6.1845   2.0615   2.0615   Cl       12 RES12   0.0000
   731 Cl       6.1845   2.0615   2.0615   Cl       12 RES12   0.0000
   732 Cl      -6.1845  -2.0615   2.0615   Cl       12 RES12   0.0000
   733 Cl      -2.0615  -2.0615   2.0615   Cl       12 RES12   0.0000
   734 Cl       6.1845  -2.0615   2.0615   Cl       12 RES12   0.0000
   735 Cl      -2.0615   6.1845  -2.0615   Cl       12 RES12   0.0000
   736 Cl       2.0615   6.1845  -2.0615   Cl       12 RES12   0.0000
   737 Cl      -6.1845   2.0615  -2.0615   Cl       12 RES12   0.0000
   738 Cl      -2.0615   2.0615  -2.0615   Cl       12 RES12   0.0000
   739 Cl       2.0615   2.0615  -2.0615   Cl       12 RES12   0.0000
   740 Cl       6.1845   2.0615  -2.0615   Cl       12 RES12   0.0000
   741 Cl      -6.1845  -2.0615  -2.0615   Cl       12 RES12   0.0000
   742 Cl      -2.0615  -2.0615  -2.0615   Cl       12 RES12   0.0000
   743 Cl       2.0615  -2.0615  -2.0615   Cl       12 RES12   0.0000
   744 Cl       6.1845  -2.0615  -2.0615   Cl       12 RES12   0.0000
   745 Cs       0.0000   0.0000   0.0000   Cs       13 RES13   0.0000
   746 Cl      -2.0615   2.0615   2.0615   Cl       13 RES13   0.0000
   747 Cs      -0.0000  -4.1230  -4.1230   Cs       13 RES13   0.0000
   748 Cl       2.0615  -2.0615  -2.0615   Cl       13 RES13   0.0000
   749 Cs       4.1230   0.0000   4.1230   Cs       13 RES13   0.0000
   750 Cl       2.0615  -2.0615   2.0615   Cl       13 RES13   0.0000
   751 Cs       4.1230   4.1230   0.0000   Cs       13 RES13   0.0000
   752 Cl       2.0615   2.0615  -2.0615   Cl       13 RES13   0.0000
   753 Cs       0.0000   4.1230   4.1230   Cs       13 RES13   0.0000
   754 Cs       0.0000  -4.1230   4.1230   Cs       13 RES13   0.0000
   755 Cs       4.1230   0.0000   0.0000   Cs       13 RES13   0.0000
   756 Cs       0.0000   4.1230  -4.1230   Cs       13 RES13   0.0000
   757 Cl       2.0615   2.0615   2.0615   Cl       13 RES13   0.0000
   758 Cs       4.1230  -4.1230  -4.1230   Cs       13 RES13   0.0000
   759 Cs       4.1230  -4.1230   0.0000   Cs       13 RES13   0.0000
   760 Cs       4.1230  -4.1230   4.1230   Cs       13 RES13   0.0000
   761 Cs      -0.0000  -4.1230   0.0000   Cs       13 RES13   0.0000
   762 Cs       4.1230  -0.0000  -4.1230   Cs       13 RES13   0.0000
   763 Cs      -0.0000  -0.0000  -4.1230   Cs       13 RES13   0.0000
   764 Cs       0.0000   0.0000   4.1230   Cs       13 RES13   0.0000
   765 Cs      -4.1230   0.0000   0.0000   Cs       13 RES13   0.0000
   766 Cs      -4.1230   0.0000   4.1230   Cs       13 RES13   0.0000
   767 Cs       4.1230   4.1230  -4.1230   Cs       13 RES13   0.0000
   768 Cs       4.1230   4.1230   4.1230   Cs       13 RES13   0.0000
   769 Cs       0.0000   4.1230   0.0000   Cs       13 RES13   0.0000
   770 Cs      -4.1230   4.1230   0.0000   Cs       13 RES13   0.0000
   771 Cs      -4.1230   4.1230   4.1230   Cs       13 RES13   0.0000
   772 Cl       2.0615  -6.1845  -6.1845   Cl       13 RES13   0.0000
   773 Cl       2.0615  -6.1845  -2.0615   Cl       13 RES13   0.0000
   774 Cl       2.0615  -6.1845   2.0615   Cl       13 RES13   0.0000
   775 Cl       2.0615  -6.1845   6.1845   Cl       13 RES13   0.0000
   776 Cl      -2.0615  -6.1845  -6.1845   Cl       13 RES13   0.0000
   777 Cl      -2.0615  -6.1845  -2.0615   Cl       13 RES13   0.0000
   778 Cl      -2.0615  -6.1845   2.0615   Cl       13 RES13   0.0000
   779 Cl      -2.0615  -6.1845   6.1845   Cl       13 RES13   0.0000
   780 Cl       6.1845  -2.0615  -2.0615   Cl       13 RES13   0.0000
   781 Cl       6.1845  -2.0615   2.0615   Cl       13 RES13   0.0000
   782 Cl       6.1845  -2.0615   6.1845   Cl       13 RES13   0.0000
   783 Cl       2.0615  -2.0615  -6.1845   Cl       13 RES13   0.0000
   784 Cl       2.0615  -2.0615   6.1845   Cl       13 RES13   0.0000
   785 Cl      -2.0615  -2.0615  -6.1845   Cl       13 RES13   0.0000
   786 Cl      -2.0615  -2.0615  -2.0615   Cl       13 RES13   0.0000
   787 Cl      -2.0615  -2.0615   2.0615   Cl       13 RES13   0.0000
   788 Cl      -2.0615  -2.0615   6.1845   Cl       13 RES13   0.0000
   789 Cl       6.1845   2.0615  -2.0615   Cl       13 RES13   0.0000
   790 Cl       6.1845   2.0615   2.0615   Cl       13 RES13   0.0000
   791 Cl       6.1845   2.0615   6.1845   Cl       13 RES13   0.0000
   792 Cl       2.0615   2.0615  -6.1845   Cl       13 RES13   0.0000
   793 Cl       2.0615   2.0615   6.1845   Cl       13 RES13   0.0000
   794 Cl      -2.0615   2.0615  -6.1845   Cl       13 RES13   0.0000
   795 Cl      -2.0615   2.0615  -2.0615   Cl       13 RES13   0.0000
   796 Cl      -2.0615   2.0615   6.1845   Cl       13 RES13   0.0000
   797 Cl       6.1845   6.1845  -2.0615   Cl       13 RES13   0.0000
   798 Cl       6.1845   6.1845   2.0615   Cl       13 RES13   0.0000
   799 Cl       2.0615   6.1845  -6.1845   Cl       13 RES13   0.0000
   800 Cl       2.0615   6.1845  -2.0615   Cl       13 RES13   0.0000
   801 Cl       2.0615   6.1845   2.0615   Cl       13 RES13   0.0000
   802 Cl       2.0615   6.1845   6.1845   Cl       13 RES13   0.0000
   803 Cl      -2.0615   6.1845  -6.1845   Cl       13 RES13   0.0000
   804 Cl      -2.0615   6.1845  -2.0615   Cl       13 RES13   0.0000
   805 Cl      -2.0615   6.1845   2.0615   Cl       13 RES13   0.0000
   806 Cl      -2.0615   6.1845   6.1845   Cl       13 RES13   0.0000
   807 Cs       0.0000   0.0000   4.1230   Cs       14 RES14   0.0000
   808 Cl       2.0615   2.0615   6.1845   Cl       14 RES14   0.0000
   809 Cs      -4.1230  -4.1230   4.1230   Cs       14 RES14   0.0000
   810 Cl      -2.0615  -2.0615   2.0615   Cl       14 RES14   0.0000
   811 Cs       0.0000   4.1230   0.0000   Cs       14 RES14   0.0000
   812 Cl      -2.0615   2.0615   2.0615   Cl       14 RES14   0.0000
   813 Cs       4.1230   0.0000   0.0000   Cs       14 RES14   0.0000
   814 Cl       2.0615  -2.0615   2.0615   Cl       14 RES14   0.0000
   815 Cs       4.1230   4.1230   4.1230   Cs       14 RES14   0.0000
   816 Cs      -4.1230   4.1230   4.1230   Cs       14 RES14   0.0000
   817 Cs       0.0000   0.0000   0.0000   Cs       14 RES14   0.0000
   818 Cs       4.1230  -4.1230   4.1230   Cs       14 RES14   0.0000
   819 Cl       2.0615   2.0615   2.0615   Cl       14 RES14   0.0000
   820 Cs      -4.1230  -4.1230   0.0000   Cs       14 RES14   0.0000
   821 Cs      -4.1230   0.0000   0.0000   Cs       14 RES14   0.0000
   822 Cs      -4.1230   4.1230   0.0000   Cs       14 RES14   0.0000
   823 Cs      -4.1230   0.0000   4.1230   Cs       14 RES14   0.0000
   824 Cs      -0.0000  -4.1230   0.0000   Cs       14 RES14   0.0000
   825 Cs       0.0000  -4.1230   4.1230   Cs       14 RES14   0.0000
   826 Cs       0.0000   4.1230   4.1230   Cs       14 RES14   0.0000
   827 Cs       0.0000   0.0000   8.2460   Cs       14 RES14   0.0000
   828 Cs       0.0000   4.1230   8.2460   Cs       14 RES14   0.0000
   829 Cs       4.1230  -4.1230   0.0000   Cs       14 RES14   0.0000
   830 Cs       4.1230   4.1230   0.0000   Cs       14 RES14   0.0000
   831 Cs       4.1230   0.0000   4.1230   Cs       14 RES14   0.0000
   832 Cs       4.1230   0.0000   8.2460   Cs       14 RES14   0.0000
   833 Cs       4.1230   4.1230   8.2460   Cs       14 RES14   0.0000
   834 Cl      -6.1845  -6.1845   2.0615   Cl       14 RES14   0.0000
   835 Cl      -6.1845  -2.0615   2.0615   Cl       14 RES14   0.0000
   836 Cl      -6.1845   2.0615   2.0615   Cl       14 RES14   0.0000
   837 Cl      -6.1845   6.1845   2.0615   Cl       14 RES14   0.0000
   838 Cl      -6.1845  -6.1845   6.1845   Cl       14 RES14   0.0000
   839 Cl      -6.1845  -2.0615   6.1845   Cl       14 RES14   0.0000
   840 Cl      -6.1845   2.0615   6.1845   Cl       14 RES14   0.0000
   841 Cl      -6.1845   6.1845   6.1845   Cl       14 RES14   0.0000
   842 Cl      -2.0615  -2.0615  -2.0615   Cl       14 RES14   0.0000
   843 Cl      -2.0615   2.0615  -2.0615   Cl       14 RES14   0.0000
   844 Cl      -2.0615   6.1845  -2.0615   Cl       14 RES14   0.0000
   845 Cl      -2.0615  -6.1845   2.0615   Cl       14 RES14   0.0000
   846 Cl      -2.0615   6.1845   2.0615   Cl       14 RES14   0.0000
   847 Cl      -2.0615  -6.1845   6.1845   Cl       14 RES14   0.0000
   848 Cl      -2.0615  -2.0615   6.1845   Cl       14 RES14   0.0000
   849 Cl      -2.0615   2.0615   6.1845   Cl       14 RES14   0.0000
   850 Cl      -2.0615   6.1845   6.1845   Cl       14 RES14   0.0000
   851 Cl       2.0615  -2.0615  -2.0615   Cl       14 RES14   0.0000
   852 Cl       2.0615   2.0615  -2.0615   Cl       14 RES14   0.0000
   853 Cl       2.0615   6.1845  -2.0615   Cl       14 RES14   0.0000
   854 Cl       2.0615  -6.1845   2.0615   Cl       14 RES14   0.0000
   855 Cl       2.0615   6.1845   2.0615   Cl       14 RES14   0.0000
   856 Cl       2.0615  -6.1845   6.1845   Cl       14 RES14   0.0000
   857 Cl       2.0615  -2.0615   6.1845   Cl       14 RES14   0.0000
   858 Cl       2.0615   6.1845   6.1845   Cl       14 RES14   0.0000
   859 Cl       6.1845  -2.0615  -2.0615   Cl       14 RES14   0.0000
   860 Cl       6.1845   2.0615  -2.0615   Cl       14 RES14   0.0000
   861 Cl       6.1845  -6.1845   2.0615   Cl       14 RES14   0.0000
   862 Cl       6.1845  -2.0615   2.0615   Cl       14 RES14   0.0000
   863 Cl       6.1845   2.0615   2.0615   Cl       14 RES14   0.0000
   864 Cl       6.1845   6.1845   2.0615   Cl       14 RES14   0.0000
   865 Cl       6.1845  -6.1845   6.1845   Cl       14 RES14   0.0000
   866 Cl       6.1845  -2.0615   6.1845   Cl       14 RES14   0.0000
   867 Cl       6.1845   2.0615   6.1845   Cl       14 RES14   0.0000
   868 Cl       6.1845   6.1845   6.1845   Cl       14 RES14   0.0000
   869 Cs       4.1230   0.0000   4.1230   Cs       15 RES15   0.0000
   870 Cl       2.0615  -2.0615   2.0615   Cl       15 RES15   0.0000
   871 Cs       8.2460   0.0000   8.2460   Cs       15 RES15   0.0000
   872 Cl       6.1845   2.0615   6.1845   Cl       15 RES15   0.0000
   873 Cs       0.0000   4.1230   4.1230   Cs       15 RES15   0.0000
   874 Cl       2.0615   2.0615   6.1845   Cl       15 RES15   0.0000
   875 Cs       4.1230   4.1230   0.0000   Cs       15 RES15   0.0000
   876 Cl       6.1845   2.0615   2.0615   Cl       15 RES15   0.0000
   877 Cs       0.0000   0.0000   0.0000   Cs       15 RES15   0.0000
   878 Cs       0.0000   0.0000   8.2460   Cs       15 RES15   0.0000
   879 Cs       4.1230   4.1230   4.1230   Cs       15 RES15   0.0000
   880 Cs       8.2460   0.0000   0.0000   Cs       15 RES15   0.0000
   881 Cl       2.0615   2.0615   2.0615   Cl       15 RES15   0.0000
   882 Cs       8.2460   4.1230   8.2460   Cs       15 RES15   0.0000
   883 Cs       4.1230   4.1230   8.2460   Cs       15 RES15   0.0000
   884 Cs       0.0000   4.1230   8.2460   Cs       15 RES15   0.0000
   885 Cs       4.1230   0.0000   8.2460   Cs       15 RES15   0.0000
   886 Cs       8.2460   4.1230   4.1230   Cs       15 RES15   0.0000
   887 Cs       8.2460   0.0000   4.1230   Cs       15 RES15   0.0000
   888 Cs       0.0000   0.0000   4.1230   Cs       15 RES15   0.0000
   889 Cs       4.1230  -4.1230   4.1230   Cs       15 RES15   0.0000
   890 Cs       0.0000  -4.1230   4.1230   Cs       15 RES15   0.0000
   891 Cs       8.2460   4.1230   0.0000   Cs       15 RES15   0.0000
   892 Cs       0.0000   4.1230   0.0000   Cs       15 RES15   0.0000
   893 Cs       4.1230   0.0000   0.0000   Cs       15 RES15   0.0000
   894 Cs       4.1230  -4.1230   0.0000   Cs       15 RES15   0.0000
   895 Cs      -0.0000  -4.1230   0.0000   Cs       15 RES15   0.0000
   896 Cl      10.3075   2.0615  10.3075   Cl       15 RES15   0.0000
   897 Cl       6.1845   2.0615  10.3075   Cl       15 RES15   0.0000
   898 Cl       2.0615   2.0615  10.3075   Cl       15 RES15   0.0000
   899 Cl      -2.0615   2.0615  10.3075   Cl       15 RES15   0.0000
   900 Cl      10.3075  -2.0615  10.3075   Cl       15 RES15   0.0000
   901 Cl       6.1845  -2.0615  10.3075   Cl       15 RES15   0.0000
   902 Cl       2.0615  -2.0615  10.3075   Cl       15 RES15   0.0000
   903 Cl      -2.0615  -2.0615  10.3075   Cl       15 RES15   0.0000
   904 Cl       6.1845   6.1845   6.1845   Cl       15 RES15   0.0000
   905 Cl       2.0615   6.1845   6.1845   Cl       15 RES15   0.0000
   906 Cl      -2.0615   6.1845   6.1845   Cl       15 RES15   0.0000
   907 Cl      10.3075   2.0615   6.1845   Cl       15 RES15   0.0000
   908 Cl      -2.0615   2.0615   6.1845   Cl       15 RES15   0.0000
   909 Cl      10.3075  -2.0615   6.1845   Cl       15 RES15   0.0000
   910 Cl       6.1845  -2.0615   6.1845   Cl       15 RES15   0.0000
   911 Cl       2.0615  -2.0615   6.1845   Cl       15 RES15   0.0000
   912 Cl      -2.0615  -2.0615   6.1845   Cl       15 RES15   0.0000
   913 Cl       6.1845   6.1845   2.0615   Cl       15 RES15   0.0000
   914 Cl       2.0615   6.1845   2.0615   Cl       15 RES15   0.0000
   915 Cl      -2.0615   6.1845   2.0615   Cl       15 RES15   0.0000
   916 Cl      10.3075   2.0615   2.0615   Cl       15 RES15   0.0000
   917 Cl      -2.0615   2.0615   2.0615   Cl       15 RES15   0.0000
   918 Cl      10.3075  -2.0615   2.0615   Cl       15 RES15   0.0000
   919 Cl       6.1845  -2.0615   2.0615   Cl       15 RES15   0.0000
   920 Cl      -2.0615  -2.0615   2.0615   Cl       15 RES15   0.0000
   921 Cl       6.1845   6.1845  -2.0615   Cl       15 RES15   0.0000
   922 Cl       2.0615   6.1845  -2.0615   Cl       15 RES15   0.0000
   923 Cl      10.3075   2.0615  -2.0615   Cl       15 RES15   0.0000
   924 Cl       6.1845   2.0615  -2.0615   Cl       15 RES15   0.0000
   925 Cl       2.0615   2.0615  -2.0615   Cl       15 RES15   0.0000
   926 Cl      -2.0615   2.0615  -2.0615   Cl       15 RES15   0.0000
   927 Cl      10.3075  -2.0615  -2.0615   Cl       15 RES15   0.0000
   928 Cl       6.1845  -2.0615  -2.0615   Cl       15 RES15   0.0000
   929 Cl       2.0615  -2.0615  -2.0615   Cl       15 RES15   0.0000
   930 Cl      -2.0615  -2.0615  -2.0615   Cl       15 RES15   0.0000
   931 Cs       4.1230   0.0000   0.0000   Cs       16 RES16   0.0000
   932 Cl       6.1845   2.0615   2.0615   Cl       16 RES16   0.0000
   933 Cs       4.1230  -4.1230  -4.1230   Cs       16 RES16   0.0000
   934 Cl       2.0615  -2.0615  -2.0615   Cl       16 RES16   0.0000
   935 Cs       0.0000   0.0000   4.1230   Cs       16 RES16   0.0000
   936 Cl       2.0615  -2.0615   2.0615   Cl       16 RES16   0.0000
   937 Cs       0.0000   4.1230   0.0000   Cs       16 RES16   0.0000
   938 Cl       2.0615   2.0615  -2.0615   Cl       16 RES16   0.0000
   939 Cs       4.1230   4.1230   4.1230   Cs       16 RES16   0.0000
   940 Cs       4.1230  -4.1230   4.1230   Cs       16 RES16   0.0000
   941 Cs       0.0000   0.0000   0.0000   Cs       16 RES16   0.0000
   942 Cs       4.1230   4.1230  -4.1230   Cs       16 RES16   0.0000
   943 Cl       2.0615   2.0615   2.0615   Cl       16 RES16   0.0000
   944 Cs      -0.0000  -4.1230  -4.1230   Cs       16 RES16   0.0000
   945 Cs      -0.0000  -4.1230   0.0000   Cs       16 RES16   0.0000
   946 Cs       0.0000  -4.1230   4.1230   Cs       16 RES16   0.0000
   947 Cs       4.1230  -4.1230   0.0000   Cs       16 RES16   0.0000
   948 Cs      -0.0000  -0.0000  -4.1230   Cs       16 RES16   0.0000
   949 Cs       4.1230  -0.0000  -4.1230   Cs       16 RES16   0.0000
   950 Cs       4.1230   0.0000   4.1230   Cs       16 RES16   0.0000
   951 Cs       8.2460   0.0000   0.0000   Cs       16 RES16   0.0000
   952 Cs       8.2460   0.0000   4.1230   Cs       16 RES16   0.0000
   953 Cs       0.0000   4.1230  -4.1230   Cs       16 RES16   0.0000
   954 Cs       0.0000   4.1230   4.1230   Cs       16 RES16   0.0000
   955 Cs       4.1230   4.1230   0.0000   Cs       16 RES16   0.0000
   956 Cs       8.2460   4.1230   0.0000   Cs       16 RES16   0.0000
   957 Cs       8.2460   4.1230   4.1230   Cs       16 RES16   0.0000
   958 Cl       2.0615  -6.1845  -6.1845   Cl       16 RES16   0.0000
   959 Cl       2.0615  -6.1845  -2.0615   Cl       16 RES16   0.0000
   960 Cl       2.0615  -6.1845   2.0615   Cl       16 RES16   0.0000
   961 Cl       2.0615  -6.1845   6.1845   Cl       16 RES16   0.0000
   962 Cl       6.1845  -6.1845  -6.1845   Cl       16 RES16   0.0000
   963 Cl       6.1845  -6.1845  -2.0615   Cl       16 RES16   0.0000
   964 Cl       6.1845  -6.1845   2.0615   Cl       16 RES16   0.0000
   965 Cl       6.1845  -6.1845   6.1845   Cl       16 RES16   0.0000
   966 Cl      -2.0615  -2.0615  -2.0615   Cl       16 RES16   0.0000
   967 Cl      -2.0615  -2.0615   2.0615   Cl       16 RES16   0.0000
   968 Cl      -2.0615  -2.0615   6.1845   Cl       16 RES16   0.0000
   969 Cl       2.0615  -2.0615  -6.1845   Cl       16 RES16   0.0000
   970 Cl       2.0615  -2.0615   6.1845   Cl       16 RES16   0.0000
   971 Cl       6.1845  -2.0615  -6.1845   Cl       16 RES16   0.0000
   972 Cl       6.1845  -2.0615  -2.0615   Cl       16 RES16   0.0000
   973 Cl       6.1845  -2.0615   2.0615   Cl       16 RES16   0.0000
   974 Cl       6.1845  -2.0615   6.1845   Cl       16 RES16   0.0000
   975 Cl      -2.0615   2.0615  -2.0615   Cl       16 RES16   0.0000
   976 Cl      -2.0615   2.0615   2.0615   Cl       16 RES16   0.0000
   977 Cl      -2.0615   2.0615   6.1845   Cl       16 RES16   0.0000
   978 Cl       2.0615   2.0615  -6.1845   Cl       16 RES16   0.0000
   979 Cl       2.0615   2.0615   6.1845   Cl       16 RES16   0.0000
   980 Cl       6.1845   2.0615  -6.1845   Cl       16 RES16   0.0000
   981 Cl       6.1845   2.0615  -2.0615   Cl       16 RES16   0.0000
   982 Cl       6.1845   2.0615   6.1845   Cl       16 RES16   0.0000
   983 Cl      -2.0615   6.1845  -2.0615   Cl       16 RES16   0.0000
   984 Cl      -2.0615   6.1845   2.0615   Cl       16 RES16   0.0000
   985 Cl       2.0615   6.1845  -6.1845   Cl       16 RES16   0.0000
   986 Cl       2.0615   6.1845  -2.0615   Cl       16 RES16   0.0000
   987 Cl       2.0615   6.1845   2.0615   Cl       16 RES16   0.0000
   988 Cl       2.0615   6.1845   6.1845   Cl       16 RES16   0.0000
   989 Cl       6.1845   6.1845  -6.1845   Cl       16 RES16   0.0000
   990 Cl       6.1845   6.1845  -2.0615   Cl       16 RES16   0.0000
   991 Cl       6.1845   6.1845   2.0615   Cl       16 RES16   0.0000
   992 Cl       6.1845   6.1845   6.1845   Cl       16 RES16   0.0000
   993 Cs       4.1230   4.1230   0.0000   Cs       17 RES17   0.0000
   994 Cl       2.0615   2.0615  -2.0615   Cl       17 RES17   0.0000
   995 Cs       8.2460   8.2460   0.0000   Cs       17 RES17   0.0000
   996 Cl       6.1845   6.1845   2.0615   Cl       17 RES17   0.0000
   997 Cs       4.1230   0.0000   4.1230   Cs       17 RES17   0.0000
   998 Cl       6.1845   2.0615   2.0615   Cl       17 RES17   0.0000
   999 Cs       0.0000   4.1230   4.1230   Cs       17 RES17   0.0000
  1000 Cl       2.0615   6.1845   2.0615   Cl       17 RES17   0.0000
  1001 Cs       0.0000   0.0000   0.0000   Cs       17 RES17   0.0000
  1002 Cs       8.2460   0.0000   0.0000   Cs       17 RES17   0.0000
  1003 Cs       4.1230   4.1230   4.1230   Cs       17 RES17   0.0000
  1004 Cs       0.0000   8.2460   0.0000   Cs       17 RES17   0.0000
  1005 Cl       2.0615   2.0615   2.0615   Cl       17 RES17   0.0000
  1006 Cs       8.2460   8.2460   4.1230   Cs       17 RES17   0.0000
  1007 Cs       8.2460   4.1230   4.1230   Cs       17 RES17   0.0000
  1008 Cs       8.2460   0.0000   4.1230   Cs       17 RES17   0.0000
  1009 Cs       8.2460   4.1230   0.0000   Cs       17 RES17   0.0000
  1010 Cs       4.1230   8.2460   4.1230   Cs       17 RES17   0.0000
  1011 Cs       4.1230   8.2460   0.0000   Cs       17 RES17   0.0000
  1012 Cs       4.1230   0.0000   0.0000   Cs       17 RES17   0.0000
  1013 Cs       4.1230   4.1230  -4.1230   Cs       17 RES17   0.0000
  1014 Cs       4.1230  -0.0000  -4.1230   Cs       17 RES17   0.0000
  1015 Cs       0.0000   8.2460   4.1230   Cs       17 RES17   0.0000
  1016 Cs       0.0000   0.0000   4.1230   Cs       17 RES17   0.0000
  1017 Cs       0.0000   4.1230   0.0000   Cs       17 RES17   0.0000
  1018 Cs       0.0000   4.1230  -4.1230   Cs       17 RES17   0.0000
  1019 Cs      -0.0000  -0.0000  -4.1230   Cs       17 RES17   0.0000
  1020 Cl      10.3075  10.3075   2.0615   Cl       17 RES17   0.0000
  1021 Cl      10.3075   6.1845   2.0615   Cl       17 RES17   0.0000
  1022 Cl      10.3075   2.0615   2.0615   Cl       17 RES17   0.0000
  1023 Cl      10.3075  -2.0615   2.0615   Cl       17 RES17   0.0000
  1024 Cl      10.3075  10.3075  -2.0615   Cl       17 RES17   0.0000
  1025 Cl      10.3075   6.1845  -2.0615   Cl       17 RES17   0.0000
  1026 Cl      10.3075   2.0615  -2.0615   Cl       17 RES17   0.0000
  1027 Cl      10.3075  -2.0615  -2.0615   Cl       17 RES17   0.0000
  1028 Cl       6.1845   6.1845   6.1845   Cl       17 RES17   0.0000
  1029 Cl       6.1845   2.0615   6.1845   Cl       17 RES17   0.0000
  1030 Cl       6.1845  -2.0615   6.1845   Cl       17 RES17   0.0000
  1031 Cl       6.1845  10.3075   2.0615   Cl       17 RES17   0.0000
  1032 Cl       6.1845  -2.0615   2.0615   Cl       17 RES17   0.0000
  1033 Cl       6.1845  10.3075  -2.0615   Cl       17 RES17   0.0000
  1034 Cl       6.1845   6.1845  -2.0615   Cl       17 RES17   0.0000
  1035 Cl       6.1845   2.0615  -2.0615   Cl       17 RES17   0.0000
  1036 Cl       6.1845  -2.0615  -2.0615   Cl       17 RES17   0.0000
  1037 Cl       2.0615   6.1845   6.1845   Cl       17 RES17   0.0000
  1038 Cl       2.0615   2.0615   6.1845   Cl       17 RES17   0.0000
  1039 Cl       2.0615  -2.0615   6.1845   Cl       17 RES17   0.0000
  1040 Cl       2.0615  10.3075   2.0615   Cl       17 RES17   0.0000
  1041 Cl       2.0615  -2.0615   2.0615   Cl       17 RES17   0.0000
  1042 Cl       2.0615  10.3075  -2.0615   Cl       17 RES17   0.0000
  1043 Cl       2.0615   6.1845  -2.0615   Cl       17 RES17   0.0000
  1044 Cl       2.0615  -2.0615  -2.0615   Cl       17 RES17   0.0000
  1045 Cl      -2.0615   6.1845   6.1845   Cl       17 RES17   0.0000
  1046 Cl      -2.0615   2.0615   6.1845   Cl       17 RES17   0.0000
  1047 Cl      -2.0615  10.3075   2.0615   Cl       17 RES17   0.0000
  1048 Cl      -2.0615   6.1845   2.0615   Cl       17 RES17   0.0000
  1049 Cl      -2.0615   2.0615   2.0615   Cl       17 RES17   0.0000
  1050 Cl      -2.0615  -2.0615   2.0615   Cl       17 RES17   0.0000
  1051 Cl      -2.0615  10.3075  -2.0615   Cl       17 RES17   0.0000
  1052 Cl      -2.0615   6.1845  -2.0615   Cl       17 RES17   0.0000
  1053 Cl      -2.0615   2.0615  -2.0615   Cl       17 RES17   0.0000
  1054 Cl      -2.0615  -2.0615  -2.0615   Cl       17 RES17   0.0000
  1055 Cs       0.0000   4.1230   4.1230   Cs       18 RES18   0.0000
  1056 Cl      -2.0615   2.0615   2.0615   Cl       18 RES18   0.0000
  1057 Cs       0.0000   8.2460   8.2460   Cs       18 RES18   0.0000
  1058 Cl       2.0615   6.1845   6.1845   Cl       18 RES18   0.0000
  1059 Cs       4.1230   4.1230   0.0000   Cs       18 RES18   0.0000
  1060 Cl       2.0615   6.1845   2.0615   Cl       18 RES18   0.0000
  1061 Cs       4.1230   0.0000   4.1230   Cs       18 RES18   0.0000
  1062 Cl       2.0615   2.0615   6.1845   Cl       18 RES18   0.0000
  1063 Cs       0.0000   0.0000   0.0000   Cs       18 RES18   0.0000
  1064 Cs       0.0000   8.2460   0.0000   Cs       18 RES18   0.0000
  1065 Cs       4.1230   4.1230   4.1230   Cs       18 RES18   0.0000
  1066 Cs       0.0000   0.0000   8.2460   Cs       18 RES18   0.0000
  1067 Cl       2.0615   2.0615   2.0615   Cl       18 RES18   0.0000
  1068 Cs       4.1230   8.2460   8.2460   Cs       18 RES18   0.0000
  1069 Cs       4.1230   8.2460   4.1230   Cs       18 RES18   0.0000
  1070 Cs       4.1230   8.2460   0.0000   Cs       18 RES18   0.0000
  1071 Cs       0.0000   8.2460   4.1230   Cs       18 RES18   0.0000
  1072 Cs       4.1230   4.1230   8.2460   Cs       18 RES18   0.0000
  1073 Cs       0.0000   4.1230   8.2460   Cs       18 RES18   0.0000
  1074 Cs       0.0000   4.1230   0.0000   Cs       18 RES18   0.0000
  1075 Cs      -4.1230   4.1230   4.1230   Cs       18 RES18   0.0000
  1076 Cs      -4.1230   4.1230   0.0000   Cs       18 RES18   0.0000
  1077 Cs       4.1230   0.0000   8.2460   Cs       18 RES18   0.0000
  1078 Cs       4.1230   0.0000   0.0000   Cs       18 RES18   0.0000
  1079 Cs       0.0000   0.0000   4.1230   Cs       18 RES18   0.0000
  1080 Cs      -4.1230   0.0000   4.1230   Cs       18 RES18   0.0000
  1081 Cs      -4.1230   0.0000   0.0000   Cs       18 RES18   0.0000
  1082 Cl       2.0615  10.3075  10.3075   Cl       18 RES18   0.0000
  1083 Cl       2.0615  10.3075   6.1845   Cl       18 RES18   0.0000
  1084 Cl       2.0615  10.3075   2.0615   Cl       18 RES18   0.0000
  1085 Cl       2.0615  10.3075  -2.0615   Cl       18 RES18   0.0000
  1086 Cl      -2.0615  10.3075  10.3075   Cl       18 RES18   0.0000
  1087 Cl      -2.0615  10.3075   6.1845   Cl       18 RES18   0.0000
  1088 Cl      -2.0615  10.3075   2.0615   Cl       18 RES18   0.0000
  1089 Cl      -2.0615  10.3075  -2.0615   Cl       18 RES18   0.0000
  1090 Cl       6.1845   6.1845   6.1845   Cl       18 RES18   0.0000
  1091 Cl       6.1845   6.1845   2.0615   Cl       18 RES18   0.0000
  1092 Cl       6.1845   6.1845  -2.0615   Cl       18 RES18   0.0000
  1093 Cl       2.0615   6.1845  10.3075   Cl       18 RES18   0.0000
  1094 Cl       2.0615   6.1845  -2.0615   Cl       18 RES18   0.0000
  1095 Cl      -2.0615   6.1845  10.3075   Cl       18 RES18   0.0000
  1096 Cl      -2.0615   6.1845   6.1845   Cl       18 RES18   0.0000
  1097 Cl      -2.0615   6.1845   2.0615   Cl       18 RES18   0.0000
  1098 Cl      -2.0615   6.1845  -2.0615   Cl       18 RES18   0.0000
  1099 Cl       6.1845   2.0615   6.1845   Cl       18 RES18   0.0000
  1100 Cl       6.1845   2.0615   2.0615   Cl       18 RES18   0.0000
  1101 Cl       6.1845   2.0615  -2.0615   Cl       18 RES18   0.0000
  1102 Cl       2.0615   2.0615  10.3075   Cl       18 RES18   0.0000
  1103 Cl       2.0615   2.0615  -2.0615   Cl       18 RES18   0.0000
  1104 Cl      -2.0615   2.0615  10.3075   Cl       18 RES18   0.0000
  1105 Cl      -2.0615   2.0615   6.1845   Cl       18 RES18   0.0000
  1106 Cl      -2.0615   2.0615  -2.0615   Cl       18 RES18   0.0000
  1107 Cl       6.1845  -2.0615   6.1845   Cl       18 RES18   0.0000
  1108 Cl       6.1845  -2.0615   2.0615   Cl       18 RES18   0.0000
  1109 Cl       2.0615  -2.0615  10.3075   Cl       18 RES18   0.0000
  1110 Cl       2.0615  -2.0615   6.1845   Cl       18 RES18   0.0000
  1111 Cl       2.0615  -2.0615   2.0615   Cl       18 RES18   0.0000
  1112 Cl       2.0615  -2.0615  -2.0615   Cl       18 RES18   0.0000
  1113 Cl      -2.0615  -2.0615  10.3075   Cl       18 RES18   0.0000
  1114 Cl      -2.0615  -2.0615   6.1845   Cl       18 RES18   0.0000
  1115 Cl      -2.0615  -2.0615   2.0615   Cl       18 RES18   0.0000
  1116 Cl      -2.0615  -2.0615  -2.0615   Cl       18 RES18   0.0000
  1117 Cs       0.0000   0.0000   0.0000   Cs       19 RES19   0.0000
  1118 Cl       2.0615   2.0615  -2.0615   Cl       19 RES19   0.0000
  1119 Cs      -4.1230  -4.1230   0.0000   Cs       19 RES19   0.0000
  1120 Cl      -2.0615  -2.0615   2.0615   Cl       19 RES19   0.0000
  1121 Cs       4.1230   0.0000   4.1230   Cs       19 RES19   0.0000
  1122 Cl       2.0615  -2.0615   2.0615   Cl       19 RES19   0.0000
  1123 Cs       0.0000   4.1230   4.1230   Cs       19 RES19   0.0000
  1124 Cl      -2.0615   2.0615   2.0615   Cl       19 RES19   0.0000
  1125 Cs       4.1230   4.1230   0.0000   Cs       19 RES19   0.0000
  1126 Cs       4.1230  -4.1230   0.0000   Cs       19 RES19   0.0000
  1127 Cs       0.0000   0.0000   4.1230   Cs       19 RES19   0.0000
  1128 Cs      -4.1230   4.1230   0.0000   Cs       19 RES19   0.0000
  1129 Cl       2.0615   2.0615   2.0615   Cl       19 RES19   0.0000
  1130 Cs      -4.1230  -4.1230   4.1230   Cs       19 RES19   0.0000
  1131 Cs       0.0000  -4.1230   4.1230   Cs       19 RES19   0.0000
  1132 Cs       4.1230  -4.1230   4.1230   Cs       19 RES19   0.0000
  1133 Cs      -0.0000  -4.1230   0.0000   Cs       19 RES19   0.0000
  1134 Cs      -4.1230   0.0000   4.1230   Cs       19 RES19   0.0000
  1135 Cs      -4.1230   0.0000   0.0000   Cs       19 RES19   0.0000
  1136 Cs       4.1230   0.0000   0.0000   Cs       19 RES19   0.0000
  1137 Cs      -0.0000  -0.0000  -4.1230   Cs       19 RES19   0.0000
  1138 Cs       4.1230  -0.0000  -4.1230   Cs       19 RES19   0.0000
  1139 Cs      -4.1230   4.1230   4.1230   Cs       19 RES19   0.0000
  1140 Cs       4.1230   4.1230   4.1230   Cs       19 RES19   0.0000
  1141 Cs       0.0000   4.1230   0.0000   Cs       19 RES19   0.0000
  1142 Cs       0.0000   4.1230  -4.1230   Cs       19 RES19   0.0000
  1143 Cs       4.1230   4.1230  -4.1230   Cs       19 RES19   0.0000
  1144 Cl      -6.1845  -6.1845   2.0615   Cl       19 RES19   0.0000
  1145 Cl      -2.0615  -6.1845   2.0615   Cl       19 RES19   0.0000
  1146 Cl       2.0615  -6.1845   2.0615   Cl       19 RES19   0.0000
  1147 Cl       6.1845  -6.1845   2.0615   Cl       19 RES19   0.0000
  1148 Cl      -6.1845  -6.1845  -2.0615   Cl       19 RES19   0.0000
  1149 Cl      -2.0615  -6.1845  -2.0615   Cl       19 RES19   0.0000
  1150 Cl       2.0615  -6.1845  -2.0615   Cl       19 RES19   0.0000
  1151 Cl       6.1845  -6.1845  -2.0615   Cl       19 RES19   0.0000
  1152 Cl      -2.0615  -2.0615   6.1845   Cl       19 RES19   0.0000
  1153 Cl       2.0615  -2.0615   6.1845   Cl       19 RES19   0.0000
  1154 Cl       6.1845  -2.0615   6.1845   Cl       19 RES19   0.0000
  1155 Cl      -6.1845  -2.0615   2.0615   Cl       19 RES19   0.0000
  1156 Cl       6.1845  -2.0615   2.0615   Cl       19 RES19   0.0000
  1157 Cl      -6.1845  -2.0615  -2.0615   Cl       19 RES19   0.0000
  1158 Cl      -2.0615  -2.0615  -2.0615   Cl       19 RES19   0.0000
  1159 Cl       2.0615  -2.0615  -2.0615   Cl       19 RES19   0.0000
  1160 Cl       6.1845  -2.0615  -2.0615   Cl       19 RES19   0.0000
  1161 Cl      -2.0615   2.0615   6.1845   Cl       19 RES19   0.0000
  1162 Cl       2.0615   2.0615   6.1845   Cl       19 RES19   0.0000
  1163 Cl       6.1845   2.0615   6.1845   Cl       19 RES19   0.0000
  1164 Cl      -6.1845   2.0615   2.0615   Cl       19 RES19   0.0000
  1165 Cl       6.1845   2.0615   2.0615   Cl       19 RES19   0.0000
  1166 Cl      -6.1845   2.0615  -2.0615   Cl       19 RES19   0.0000
  1167 Cl      -2.0615   2.0615  -2.0615   Cl       19 RES19   0.0000
  1168 Cl       6.1845   2.0615  -2.0615   Cl       19 RES19   0.0000
  1169 Cl      -2.0615   6.1845   6.1845   Cl       19 RES19   0.0000
  1170 Cl       2.0615   6.1845   6.1845   Cl       19 RES19   0.0000
  1171 Cl      -6.1845   6.1845   2.0615   Cl       19 RES19   0.0000
  1172 Cl      -2.0615   6.1845   2.0615   Cl       19 RES19   0.0000
  1173 Cl       2.0615   6.1845   2.0615   Cl       19 RES19   0.0000
  1174 Cl       6.1845   6.1845   2.0615   Cl       19 RES19   0.0000
  1175 Cl      -6.1845   6.1845  -2.0615   Cl       19 RES19   0.0000
  1176 Cl      -2.0615   6.1845  -2.0615   Cl       19 RES19   0.0000
  1177 Cl       2.0615   6.1845  -2.0615   Cl       19 RES19   0.0000
  1178 Cl       6.1845   6.1845  -2.0615   Cl       19 RES19   0.0000
  1179 Cs       0.0000   4.1230   0.0000   Cs       20 RES20   0.0000
  1180 Cl      -2.0615   2.0615   2.0615   Cl       20 RES20   0.0000
  1181 Cs       0.0000   8.2460  -4.1230   Cs       20 RES20   0.0000
  1182 Cl       2.0615   6.1845  -2.0615   Cl       20 RES20   0.0000
  1183 Cs       4.1230   0.0000   0.0000   Cs       20 RES20   0.0000
  1184 Cl       2.0615   2.0615  -2.0615   Cl       20 RES20   0.0000
  1185 Cs       4.1230   4.1230   4.1230   Cs       20 RES20   0.0000
  1186 Cl       2.0615   6.1845   2.0615   Cl       20 RES20   0.0000
  1187 Cs       0.0000   0.0000   4.1230   Cs       20 RES20   0.0000
  1188 Cs      -0.0000  -0.0000  -4.1230   Cs       20 RES20   0.0000
  1189 Cs       4.1230   4.1230   0.0000   Cs       20 RES20   0.0000
  1190 Cs       0.0000   8.2460   4.1230   Cs       20 RES20   0.0000
  1191 Cl       2.0615   2.0615   2.0615   Cl       20 RES20   0.0000
  1192 Cs       4.1230   8.2460  -4.1230   Cs       20 RES20   0.0000
  1193 Cs       4.1230   4.1230  -4.1230   Cs       20 RES20   0.0000
  1194 Cs       4.1230  -0.0000  -4.1230   Cs       20 RES20   0.0000
  1195 Cs       0.0000   4.1230  -4.1230   Cs       20 RES20   0.0000
  1196 Cs       4.1230   8.2460   0.0000   Cs       20 RES20   0.0000
  1197 Cs       0.0000   8.2460   0.0000   Cs       20 RES20   0.0000
  1198 Cs       0.0000   0.0000   0.0000   Cs       20 RES20   0.0000
  1199 Cs      -4.1230   4.1230   0.0000   Cs       20 RES20   0.0000
  1200 Cs      -4.1230   0.0000   0.0000   Cs       20 RES20   0.0000
  1201 Cs       4.1230   8.2460   4.1230   Cs       20 RES20   0.0000
  1202 Cs       4.1230   0.0000   4.1230   Cs       20 RES20   0.0000
  1203 Cs       0.0000   4.1230   4.1230   Cs       20 RES20   0.0000
  1204 Cs      -4.1230   4.1230   4.1230   Cs       20 RES20   0.0000
  1205 Cs      -4.1230   0.0000   4.1230   Cs       20 RES20   0.0000
  1206 Cl       2.0615  10.3075  -6.1845   Cl       20 RES20   0.0000
  1207 Cl       2.0615   6.1845  -6.1845   Cl       20 RES20   0.0000
  1208 Cl       2.0615   2.0615  -6.1845   Cl       20 RES20   0.0000
  1209 Cl       2.0615  -2.0615  -6.1845   Cl       20 RES20   0.0000
  1210 Cl      -2.0615  10.3075  -6.1845   Cl       20 RES20   0.0000
  1211 Cl      -2.0615   6.1845  -6.1845   Cl       20 RES20   0.0000
  1212 Cl      -2.0615   2.0615  -6.1845   Cl       20 RES20   0.0000
  1213 Cl      -2.0615  -2.0615  -6.1845   Cl       20 RES20   0.0000
  1214 Cl       6.1845   6.1845  -2.0615   Cl       20 RES20   0.0000
  1215 Cl       6.1845   2.0615  -2.0615   Cl       20 RES20   0.0000
  1216 Cl       6.1845  -2.0615  -2.0615   Cl       20 RES20   0.0000
  1217 Cl       2.0615  10.3075  -2.0615   Cl       20 RES20   0.0000
  1218 Cl       2.0615  -2.0615  -2.0615   Cl       20 RES20   0.0000
  1219 Cl      -2.0615  10.3075  -2.0615   Cl       20 RES20   0.0000
  1220 Cl      -2.0615   6.1845  -2.0615   Cl       20 RES20   0.0000
  1221 Cl      -2.0615   2.0615  -2.0615   Cl       20 RES20   0.0000
  1222 Cl      -2.0615  -2.0615  -2.0615   Cl       20 RES20   0.0000
  1223 Cl       6.1845   6.1845   2.0615   Cl       20 RES20   0.0000
  1224 Cl       6.1845   2.0615   2.0615   Cl       20 RES20   0.0000
  1225 Cl       6.1845  -2.0615   2.0615   Cl       20 RES20   0.0000
  1226 Cl       2.0615  10.3075   2.0615   Cl       20 RES20   0.0000
  1227 Cl       2.0615  -2.0615   2.0615   Cl       20 RES20   0.0000
  1228 Cl      -2.0615  10.3075   2.0615   Cl       20 RES20   0.0000
  1229 Cl      -2.0615   6.1845   2.0615   Cl       20 RES20   0.0000
  1230 Cl      -2.0615  -2.0615   2.0615   Cl       20 RES20   0.0000
  1231 Cl       6.1845   6.1845   6.1845   Cl       20 RES20   0.0000
  1232 Cl       6.1845   2.0615   6.1845   Cl       20 RES20   0.0000
  1233 Cl       2.0615  10.3075   6.1845   Cl       20 RES20   0.0000
  1234 Cl       2.0615   6.1845   6.1845   Cl       20 RES20   0.0000
  1235 Cl       2.0615   2.0615   6.1845   Cl       20 RES20   0.0000
  1236 Cl       2.0615  -2.0615   6.1845   Cl       20 RES20   0.0000
  1237 Cl      -2.0615  10.3075   6.1845   Cl       20 RES20   0.0000
  1238 Cl      -2.0615   6.1845   6.1845   Cl       20 RES20   0.0000
  1239 Cl      -2.0615   2.0615   6.1845   Cl       20 RES20   0.0000
  1240 Cl      -2.0615  -2.0615   6.1845   Cl       20 RES20   0.0000
  1241 Cs       0.0000   4.1230   4.1230   Cs       21 RES21   0.0000
  1242 Cl       2.0615   6.1845   2.0615   Cl       21 RES21   0.0000
  1243 Cs      -4.1230   4.1230   8.2460   Cs       21 RES21   0.0000
  1244 Cl      -2.0615   2.0615   6.1845   Cl       21 RES21   0.0000
  1245 Cs       0.0000   0.0000   0.0000   Cs       21 RES21   0.0000
  1246 Cl      -2.0615   2.0615   2.0615   Cl       21 RES21   0.0000
  1247 Cs       4.1230   0.0000   4.1230   Cs       21 RES21   0.0000
  1248 Cl       2.0615   2.0615   6.1845   Cl       21 RES21   0.0000
  1249 Cs       4.1230   4.1230   0.0000   Cs       21 RES21   0.0000
  1250 Cs      -4.1230   4.1230   0.0000   Cs       21 RES21   0.0000
  1251 Cs       0.0000   0.0000   4.1230   Cs       21 RES21   0.0000
  1252 Cs       4.1230   4.1230   8.2460   Cs       21 RES21   0.0000
  1253 Cl       2.0615   2.0615   2.0615   Cl       21 RES21   0.0000
  1254 Cs      -4.1230   0.0000   8.2460   Cs       21 RES21   0.0000
  1255 Cs      -4.1230   0.0000   4.1230   Cs       21 RES21   0.0000
  1256 Cs      -4.1230   0.0000   0.0000   Cs       21 RES21   0.0000
  1257 Cs      -4.1230   4.1230   4.1230   Cs       21 RES21   0.0000
  1258 Cs       0.0000   0.0000   8.2460   Cs       21 RES21   0.0000
  1259 Cs       0.0000   4.1230   8.2460   Cs       21 RES21   0.0000
  1260 Cs       0.0000   4.1230   0.0000   Cs       21 RES21   0.0000
  1261 Cs       0.0000   8.2460   4.1230   Cs       21 RES21   0.0000
  1262 Cs       0.0000   8.2460   0.0000   Cs       21 RES21   0.0000
  1263 Cs       4.1230   0.0000   8.2460   Cs       21 RES21   0.0000
  1264 Cs       4.1230   0.0000   0.0000   Cs       21 RES21   0.0000
  1265 Cs       4.1230   4.1230   4.1230   Cs       21 RES21   0.0000
  1266 Cs       4.1230   8.2460   4.1230   Cs       21 RES21   0.0000
  1267 Cs       4.1230   8.2460   0.0000   Cs       21 RES21   0.0000
  1268 Cl      -6.1845   2.0615  10.3075   Cl       21 RES21   0.0000
  1269 Cl      -6.1845   2.0615   6.1845   Cl       21 RES21   0.0000
  1270 Cl      -6.1845   2.0615   2.0615   Cl       21 RES21   0.0000
  1271 Cl      -6.1845   2.0615  -2.0615   Cl       21 RES21   0.0000
  1272 Cl      -6.1845   6.1845  10.3075   Cl       21 RES21   0.0000
  1273 Cl      -6.1845   6.1845   6.1845   Cl       21 RES21   0.0000
  1274 Cl      -6.1845   6.1845   2.0615   Cl       21 RES21   0.0000
  1275 Cl      -6.1845   6.1845  -2.0615   Cl       21 RES21   0.0000
  1276 Cl      -2.0615  -2.0615   6.1845   Cl       21 RES21   0.0000
  1277 Cl      -2.0615  -2.0615   2.0615   Cl       21 RES21   0.0000
  1278 Cl      -2.0615  -2.0615  -2.0615   Cl       21 RES21   0.0000
  1279 Cl      -2.0615   2.0615  10.3075   Cl       21 RES21   0.0000
  1280 Cl      -2.0615   2.0615  -2.0615   Cl       21 RES21   0.0000
  1281 Cl      -2.0615   6.1845  10.3075   Cl       21 RES21   0.0000
  1282 Cl      -2.0615   6.1845   6.1845   Cl       21 RES21   0.0000
  1283 Cl      -2.0615   6.1845   2.0615   Cl       21 RES21   0.0000
  1284 Cl      -2.0615   6.1845  -2.0615   Cl       21 RES21   0.0000
  1285 Cl       2.0615  -2.0615   6.1845   Cl       21 RES21   0.0000
  1286 Cl       2.0615  -2.0615   2.0615   Cl       21 RES21   0.0000
  1287 Cl       2.0615  -2.0615  -2.0615   Cl       21 RES21   0.0000
  1288 Cl       2.0615   2.0615  10.3075   Cl       21 RES21   0.0000
  1289 Cl       2.0615   2.0615  -2.0615   Cl       21 RES21   0.0000
  1290 Cl       2.0615   6.1845  10.3075   Cl       21 RES21   0.0000
  1291 Cl       2.0615   6.1845   6.1845   Cl       21 RES21   0.0000
  1292 Cl       2.0615   6.1845  -2.0615   Cl       21 RES21   0.0000
  1293 Cl       6.1845  -2.0615   6.1845   Cl       21 RES21   0.0000
  1294 Cl       6.1845  -2.0615   2.0615   Cl       21 RES21   0.0000
  1295 Cl       6.1845   2.0615  10.3075   Cl       21 RES21   0.0000
  1296 Cl       6.1845   2.0615   6.1845   Cl       21 RES21   0.0000
  1297 Cl       6.1845   2.0615   2.0615   Cl       21 RES21   0.0000
  1298 Cl       6.1845   2.0615  -2.0615   Cl       21 RES21   0.0000
  1299 Cl       6.1845   6.1845  10.3075   Cl       21 RES21   0.0000
  1300 Cl       6.1845   6.1845   6.1845   Cl       21 RES21   0.0000
  1301 Cl       6.1845   6.1845   2.0615   Cl       21 RES21   0.0000
  1302 Cl       6.1845   6.1845  -2.0615   Cl       21 RES21   0.0000
  1303 Cs       4.1230   4.1230   4.1230   Cs       22 RES22   0.0000
  1304 Cl       2.0615   2.0615   6.1845   Cl       22 RES22   0.0000
  1305 Cs       8.2460   8.2460   4.1230   Cs       22 RES22   0.0000
  1306 Cl       6.1845   6.1845   2.0615   Cl       22 RES22   0.0000
  1307 Cs       0.0000   4.1230   0.0000   Cs       22 RES22   0.0000
  1308 Cl       2.0615   6.1845   2.0615   Cl       22 RES22   0.0000
  1309 Cs       4.1230   0.0000   0.0000   Cs       22 RES22   0.0000
  1310 Cl       6.1845   2.0615   2.0615   Cl       22 RES22   0.0000
  1311 Cs       0.0000   0.0000   4.1230   Cs       22 RES22   0.0000
  1312 Cs       0.0000   8.2460   4.1230   Cs       22 RES22   0.0000
  1313 Cs       4.1230   4.1230   0.0000   Cs       22 RES22   0.0000
  1314 Cs       8.2460   0.0000   4.1230   Cs       22 RES22   0.0000
  1315 Cl       2.0615   2.0615   2.0615   Cl       22 RES22   0.0000
  1316 Cs       8.2460   8.2460   0.0000   Cs       22 RES22   0.0000
  1317 Cs       4.1230   8.2460   0.0000   Cs       22 RES22   0.0000
  1318 Cs       0.0000   8.2460   0.0000   Cs       22 RES22   0.0000
  1319 Cs       4.1230   8.2460   4.1230   Cs       22 RES22   0.0000
  1320 Cs       8.2460   4.1230   0.0000   Cs       22 RES22   0.0000
  1321 Cs       8.2460   4.1230   4.1230   Cs       22 RES22   0.0000
  1322 Cs       0.0000   4.1230   4.1230   Cs       22 RES22   0.0000
  1323 Cs       4.1230   4.1230   8.2460   Cs       22 RES22   0.0000
  1324 Cs       0.0000   4.1230   8.2460   Cs       22 RES22   0.0000
  1325 Cs       8.2460   0.0000   0.0000   Cs       22 RES22   0.0000
  1326 Cs       0.0000   0.0000   0.0000   Cs       22 RES22   0.0000
  1327 Cs       4.1230   0.0000   4.1230   Cs       22 RES22   0.0000
  1328 Cs       4.1230   0.0000   8.2460   Cs       22 RES22   0.0000
  1329 Cs       0.0000   0.0000   8.2460   Cs       22 RES22   0.0000
  1330 Cl      10.3075  10.3075   2.0615   Cl       22 RES22   0.0000
  1331 Cl       6.1845  10.3075   2.0615   Cl       22 RES22   0.0000
  1332 Cl       2.0615  10.3075   2.0615   Cl       22 RES22   0.0000
  1333 Cl      -2.0615  10.3075   2.0615   Cl       22 RES22   0.0000
  1334 Cl      10.3075  10.3075   6.1845   Cl       22 RES22   0.0000
  1335 Cl       6.1845  10.3075   6.1845   Cl       22 RES22   0.0000
  1336 Cl       2.0615  10.3075   6.1845   Cl       22 RES22   0.0000
  1337 Cl      -2.0615  10.3075   6.1845   Cl       22 RES22   0.0000
  1338 Cl       6.1845   6.1845  -2.0615   Cl       22 RES22   0.0000
  1339 Cl       2.0615   6.1845  -2.0615   Cl       22 RES22   0.0000
  1340 Cl      -2.0615   6.1845  -2.0615   Cl       22 RES22   0.0000
  1341 Cl      10.3075   6.1845   2.0615   Cl       22 RES22   0.0000
  1342 Cl      -2.0615   6.1845   2.0615   Cl       22 RES22   0.0000
  1343 Cl      10.3075   6.1845   6.1845   Cl       22 RES22   0.0000
  1344 Cl       6.1845   6.1845   6.1845   Cl       22 RES22   0.0000
  1345 Cl       2.0615   6.1845   6.1845   Cl       22 RES22   0.0000
  1346 Cl      -2.0615   6.1845   6.1845   Cl       22 RES22   0.0000
  1347 Cl       6.1845   2.0615  -2.0615   Cl       22 RES22   0.0000
  1348 Cl       2.0615   2.0615  -2.0615   Cl       22 RES22   0.0000
  1349 Cl      -2.0615   2.0615  -2.0615   Cl       22 RES22   0.0000
  1350 Cl      10.3075   2.0615   2.0615   Cl       22 RES22   0.0000
  1351 Cl      -2.0615   2.0615   2.0615   Cl       22 RES22   0.0000
  1352 Cl      10.3075   2.0615   6.1845   Cl       22 RES22   0.0000
  1353 Cl       6.1845   2.0615   6.1845   Cl       22 RES22   0.0000
  1354 Cl      -2.0615   2.0615   6.1845   Cl       22 RES22   0.0000
  1355 Cl       6.1845  -2.0615  -2.0615   Cl       22 RES22   0.0000
  1356 Cl       2.0615  -2.0615  -2.0615   Cl       22 RES22   0.0000
  1357 Cl      10.3075  -2.0615   2.0615   Cl       22 RES22   0.0000
  1358 Cl       6.1845  -2.0615   2.0615   Cl       22 RES22   0.0000
  1359 Cl       2.0615  -2.0615   2.0615   Cl       22 RES22   0.0000
  1360 Cl      -2.0615  -2.0615   2.0615   Cl       22 RES22   0.0000
  1361 Cl      10.3075  -2.0615   6.1845   Cl       22 RES22   0.0000
  1362 Cl       6.1845  -2.0615   6.1845   Cl       22 RES22   0.0000
  1363 Cl       2.0615  -2.0615   6.1845   Cl       22 RES22   0.0000
  1364 Cl      -2.0615  -2.0615   6.1845   Cl       22 RES22   0.0000
  1365 Cs       4.1230   0.0000   4.1230   Cs       23 RES23   0.0000
  1366 Cl       6.1845   2.0615   2.0615   Cl       23 RES23   0.0000
  1367 Cs       4.1230  -4.1230   8.2460   Cs       23 RES23   0.0000
  1368 Cl       2.0615  -2.0615   6.1845   Cl       23 RES23   0.0000
  1369 Cs       0.0000   4.1230   4.1230   Cs       23 RES23   0.0000
  1370 Cl       2.0615   2.0615   6.1845   Cl       23 RES23   0.0000
  1371 Cs       0.0000   0.0000   0.0000   Cs       23 RES23   0.0000
  1372 Cl       2.0615  -2.0615   2.0615   Cl       23 RES23   0.0000
  1373 Cs       4.1230   4.1230   0.0000   Cs       23 RES23   0.0000
  1374 Cs       4.1230   4.1230   8.2460   Cs       23 RES23   0.0000
  1375 Cs       0.0000   0.0000   4.1230   Cs       23 RES23   0.0000
  1376 Cs       4.1230  -4.1230   0.0000   Cs       23 RES23   0.0000
  1377 Cl       2.0615   2.0615   2.0615   Cl       23 RES23   0.0000
  1378 Cs       0.0000  -4.1230   8.2460   Cs       23 RES23   0.0000
  1379 Cs       0.0000   0.0000   8.2460   Cs       23 RES23   0.0000
  1380 Cs       0.0000   4.1230   8.2460   Cs       23 RES23   0.0000
  1381 Cs       4.1230   0.0000   8.2460   Cs       23 RES23   0.0000
  1382 Cs       0.0000  -4.1230   4.1230   Cs       23 RES23   0.0000
  1383 Cs       4.1230  -4.1230   4.1230   Cs       23 RES23   0.0000
  1384 Cs       4.1230   4.1230   4.1230   Cs       23 RES23   0.0000
  1385 Cs       8.2460   0.0000   4.1230   Cs       23 RES23   0.0000
  1386 Cs       8.2460   4.1230   4.1230   Cs       23 RES23   0.0000
  1387 Cs      -0.0000  -4.1230   0.0000   Cs       23 RES23   0.0000
  1388 Cs       0.0000   4.1230   0.0000   Cs       23 RES23   0.0000
  1389 Cs       4.1230   0.0000   0.0000   Cs       23 RES23   0.0000
  1390 Cs       8.2460   0.0000   0.0000   Cs       23 RES23   0.0000
  1391 Cs       8.2460   4.1230   0.0000   Cs       23 RES23   0.0000
  1392 Cl       2.0615  -6.1845  10.3075   Cl       23 RES23   0.0000
  1393 Cl       2.0615  -2.0615  10.3075   Cl       23 RES23   0.0000
  1394 Cl       2.0615   2.0615  10.3075   Cl       23 RES23   0.0000
  1395 Cl       2.0615   6.1845  10.3075   Cl       23 RES23   0.0000
  1396 Cl       6.1845  -6.1845  10.3075   Cl       23 RES23   0.0000
  1397 Cl       6.1845  -2.0615  10.3075   Cl       23 RES23   0.0000
  1398 Cl       6.1845   2.0615  10.3075   Cl       23 RES23   0.0000
  1399 Cl       6.1845   6.1845  10.3075   Cl       23 RES23   0.0000
  1400 Cl      -2.0615  -2.0615   6.1845   Cl       23 RES23   0.0000
  1401 Cl      -2.0615   2.0615   6.1845   Cl       23 RES23   0.0000
  1402 Cl      -2.0615   6.1845   6.1845   Cl       23 RES23   0.0000
  1403 Cl       2.0615  -6.1845   6.1845   Cl       23 RES23   0.0000
  1404 Cl       2.0615   6.1845   6.1845   Cl       23 RES23   0.0000
  1405 Cl       6.1845  -6.1845   6.1845   Cl       23 RES23   0.0000
  1406 Cl       6.1845  -2.0615   6.1845   Cl       23 RES23   0.0000
  1407 Cl       6.1845   2.0615   6.1845   Cl       23 RES23   0.0000
  1408 Cl       6.1845   6.1845   6.1845   Cl       23 RES23   0.0000
  1409 Cl      -2.0615  -2.0615   2.0615   Cl       23 RES23   0.0000
  1410 Cl      -2.0615   2.0615   2.0615   Cl       23 RES23   0.0000
  1411 Cl      -2.0615   6.1845   2.0615   Cl       23 RES23   0.0000
  1412 Cl       2.0615  -6.1845   2.0615   Cl       23 RES23   0.0000
  1413 Cl       2.0615   6.1845   2.0615   Cl       23 RES23   0.0000
  1414 Cl       6.1845  -6.1845   2.0615   Cl       23 RES23   0.0000
  1415 Cl       6.1845  -2.0615   2.0615   Cl       23 RES23   0.0000
  1416 Cl       6.1845   6.1845   2.0615   Cl       23 RES23   0.0000
  1417 Cl      -2.0615  -2.0615  -2.0615   Cl       23 RES23   0.0000
  1418 Cl      -2.0615   2.0615  -2.0615   Cl       23 RES23   0.0000
  1419 Cl       2.0615  -6.1845  -2.0615   Cl       23 RES23   0.0000
  1420 Cl       2.0615  -2.0615  -2.0615   Cl       23 RES23   0.0000
  1421 Cl       2.0615   2.0615  -2.0615   Cl       23 RES23   0.0000
  1422 Cl       2.0615   6.1845  -2.0615   Cl       23 RES23   0.0000
  1423 Cl       6.1845  -6.1845  -2.0615   Cl       23 RES23   0.0000
  1424 Cl       6.1845  -2.0615  -2.0615   Cl       23 RES23   0.0000
  1425 Cl       6.1845   2.0615  -2.0615   Cl       23 RES23   0.0000
  1426 Cl       6.1845   6.1845  -2.0615   Cl       23 RES23   0.0000
  1427 Cs       4.1230   0.0000   0.0000   Cs       24 RES24   0.0000
  1428 Cl       2.0615  -2.0615   2.0615   Cl       24 RES24   0.0000
  1429 Cs       8.2460  -0.0000  -4.1230   Cs       24 RES24   0.0000
  1430 Cl       6.1845   2.0615  -2.0615   Cl       24 RES24   0.0000
  1431 Cs       4.1230   4.1230   4.1230   Cs       24 RES24   0.0000
  1432 Cl       6.1845   2.0615   2.0615   Cl       24 RES24   0.0000
  1433 Cs       0.0000   4.1230   0.0000   Cs       24 RES24   0.0000
  1434 Cl       2.0615   2.0615  -2.0615   Cl       24 RES24   0.0000
  1435 Cs       0.0000   0.0000   4.1230   Cs       24 RES24   0.0000
  1436 Cs       8.2460   0.0000   4.1230   Cs       24 RES24   0.0000
  1437 Cs       4.1230   4.1230   0.0000   Cs       24 RES24   0.0000
  1438 Cs      -0.0000  -0.0000  -4.1230   Cs       24 RES24   0.0000
  1439 Cl       2.0615   2.0615   2.0615   Cl       24 RES24   0.0000
  1440 Cs       8.2460   4.1230  -4.1230   Cs       24 RES24   0.0000
  1441 Cs       8.2460   4.1230   0.0000   Cs       24 RES24   0.0000
  1442 Cs       8.2460   4.1230   4.1230   Cs       24 RES24   0.0000
  1443 Cs       8.2460   0.0000   0.0000   Cs       24 RES24   0.0000
  1444 Cs       4.1230   4.1230  -4.1230   Cs       24 RES24   0.0000
  1445 Cs       4.1230  -0.0000  -4.1230   Cs       24 RES24   0.0000
  1446 Cs       4.1230   0.0000   4.1230   Cs       24 RES24   0.0000
  1447 Cs       4.1230  -4.1230   0.0000   Cs       24 RES24   0.0000
  1448 Cs       4.1230  -4.1230   4.1230   Cs       24 RES24   0.0000
  1449 Cs       0.0000   4.1230  -4.1230   Cs       24 RES24   0.0000
  1450 Cs       0.0000   4.1230   4.1230   Cs       24 RES24   0.0000
  1451 Cs       0.0000   0.0000   0.0000   Cs       24 RES24   0.0000
  1452 Cs      -0.0000  -4.1230   0.0000   Cs       24 RES24   0.0000
  1453 Cs       0.0000  -4.1230   4.1230   Cs       24 RES24   0.0000
  1454 Cl      10.3075   2.0615  -6.1845   Cl       24 RES24   0.0000
  1455 Cl      10.3075   2.0615  -2.0615   Cl       24 RES24   0.0000
  1456 Cl      10.3075   2.0615   2.0615   Cl       24 RES24   0.0000
  1457 Cl      10.3075   2.0615   6.1845   Cl       24 RES24   0.0000
  1458 Cl      10.3075  -2.0615  -6.1845   Cl       24 RES24   0.0000
  1459 Cl      10.3075  -2.0615  -2.0615   Cl       24 RES24   0.0000
  1460 Cl      10.3075  -2.0615   2.0615   Cl       24 RES24   0.0000
  1461 Cl      10.3075  -2.0615   6.1845   Cl       24 RES24   0.0000
  1462 Cl       6.1845   6.1845  -2.0615   Cl       24 RES24   0.0000
  1463 Cl       6.1845   6.1845   2.0615   Cl       24 RES24   0.0000
  1464 Cl       6.1845   6.1845   6.1845   Cl       24 RES24   0.0000
  1465 Cl       6.1845   2.0615  -6.1845   Cl       24 RES24   0.0000
  1466 Cl       6.1845   2.0615   6.1845   Cl       24 RES24   0.0000
  1467 Cl       6.1845  -2.0615  -6.1845   Cl       24 RES24   0.0000
  1468 Cl       6.1845  -2.0615  -2.0615   Cl       24 RES24   0.0000
  1469 Cl       6.1845  -2.0615   2.0615   Cl       24 RES24   0.0000
  1470 Cl       6.1845  -2.0615   6.1845   Cl       24 RES24   0.0000
  1471 Cl       2.0615   6.1845  -2.0615   Cl       24 RES24   0.0000
  1472 Cl       2.0615   6.1845   2.0615   Cl       24 RES24   0.0000
  1473 Cl       2.0615   6.1845   6.1845   Cl       24 RES24   0.0000
  1474 Cl       2.0615   2.0615  -6.1845   Cl       24 RES24   0.0000
  1475 Cl       2.0615   2.0615   6.1845   Cl       24 RES24   0.0000
  1476 Cl       2.0615  -2.0615  -6.1845   Cl       24 RES24   0.0000
  1477 Cl       2.0615  -2.0615  -2.0615   Cl       24 RES24   0.0000
  1478 Cl       2.0615  -2.0615   6.1845   Cl       24 RES24   0.0000
  1479 Cl      -2.0615   6.1845  -2.0615   Cl       24 RES24   0.0000
  1480 Cl      -2.0615   6.1845   2.0615   Cl       24 RES24   0.0000
  1481 Cl      -2.0615   2.0615  -6.1845   Cl       24 RES24   0.0000
  1482 Cl      -2.0615   2.0615  -2.0615   Cl       24 RES24   0.0000
  1483 Cl      -2.0615   2.0615   2.0615   Cl       24 RES24   0.0000
  1484 Cl      -2.0615   2.0615   6.1845   Cl       24 RES24   0.0000
  1485 Cl      -2.0615  -2.0615  -6.1845   Cl       24 RES24   0.0000
  1486 Cl      -2.0615  -2.0615  -2.0615   Cl       24 RES24   0.0000
  1487 Cl      -2.0615  -2.0615   2.0615   Cl       24 RES24   0.0000
  1488 Cl      -2.0615  -2.0615   6.1845   Cl       24 RES24   0.0000
@<TRIPOS>BOND
     1     1     2    1
     2     1     4    1
     3     1     6    1
     4     1     8    1
     5     1    13    1
     6     1    42    1
     7     1    43    1
     8     1    51    1
     9     2     9    1
    10     2    20    1
    11     2    21    1
    12     2    22    1
    13     2    25    1
    14     2    26    1
    15     2    27    1
    16     3     4    1
    17     3    28    1
    18     3    29    1
    19     3    32    1
    20     3    33    1
    21     3    39    1
    22     3    41    1
    23     3    42    1
    24     4    11    1
    25     4    14    1
    26     4    15    1
    27     4    17    1
    28     4    18    1
    29     4    19    1
    30     5     6    1
    31     5    13    1
    32     5    37    1
    33     5    38    1
    34     5    40    1
    35     5    46    1
    36     5    47    1
    37     5    49    1
    38     6    10    1
    39     6    11    1
    40     6    15    1
    41     6    16    1
    42     6    17    1
    43     6    20    1
    44     7     8    1
    45     7    13    1
    46     7    45    1
    47     7    46    1
    48     7    53    1
    49     7    54    1
    50     7    56    1
    51     7    57    1
    52     8    11    1
    53     8    12    1
    54     8    18    1
    55     8    19    1
    56     8    23    1
    57     8    25    1
    58     9    13    1
    59     9    49    1
    60     9    52    1
    61     9    57    1
    62     9    58    1
    63     9    61    1
    64     9    62    1
    65    10    30    1
    66    10    31    1
    67    10    34    1
    68    10    35    1
    69    10    40    1
    70    10    43    1
    71    10    44    1
    72    11    13    1
    73    11    36    1
    74    11    37    1
    75    11    45    1
    76    11    46    1
    77    12    48    1
    78    12    50    1
    79    12    51    1
    80    12    55    1
    81    12    56    1
    82    12    59    1
    83    12    60    1
    84    13    20    1
    85    13    24    1
    86    13    25    1
    87    14    28    1
    88    14    29    1
    89    14    36    1
    90    14    39    1
    91    15    29    1
    92    15    30    1
    93    15    36    1
    94    15    37    1
    95    16    30    1
    96    16    31    1
    97    16    37    1
    98    16    38    1
    99    16    40    1
   100    17    29    1
   101    17    30    1
   102    17    33    1
   103    17    34    1
   104    17    42    1
   105    17    43    1
   106    18    36    1
   107    18    39    1
   108    18    45    1
   109    18    48    1
   110    19    39    1
   111    19    41    1
   112    19    42    1
   113    19    48    1
   114    19    50    1
   115    19    51    1
   116    20    40    1
   117    20    43    1
   118    20    44    1
   119    20    49    1
   120    20    52    1
   121    21    42    1
   122    21    43    1
   123    21    51    1
   124    22    43    1
   125    22    44    1
   126    22    52    1
   127    23    45    1
   128    23    48    1
   129    23    53    1
   130    23    55    1
   131    23    56    1
   132    24    46    1
   133    24    47    1
   134    24    49    1
   135    24    54    1
   136    24    57    1
   137    24    58    1
   138    25    51    1
   139    25    56    1
   140    25    57    1
   141    25    60    1
   142    25    61    1
   143    26    51    1
   144    26    60    1
   145    26    61    1
   146    27    52    1
   147    27    61    1
   148    27    62    1
   149    63    64    1
   150    63    66    1
   151    63    68    1
   152    63    70    1
   153    63    75    1
   154    63   104    1
   155    63   105    1
   156    63   113    1
   157    64    71    1
   158    64    82    1
   159    64    83    1
   160    64    84    1
   161    64    87    1
   162    64    88    1
   163    64    89    1
   164    65    66    1
   165    65    90    1
   166    65    91    1
   167    65    94    1
   168    65    95    1
   169    65   101    1
   170    65   103    1
   171    65   104    1
   172    66    73    1
   173    66    76    1
   174    66    77    1
   175    66    79    1
   176    66    80    1
   177    66    81    1
   178    67    68    1
   179    67    75    1
   180    67    99    1
   181    67   100    1
   182    67   102    1
   183    67   108    1
   184    67   109    1
   185    67   111    1
   186    68    72    1
   187    68    73    1
   188    68    77    1
   189    68    78    1
   190    68    79    1
   191    68    82    1
   192    69    70    1
   193    69    75    1
   194    69   107    1
   195    69   108    1
   196    69   115    1
   197    69   116    1
   198    69   118    1
   199    69   119    1
   200    70    73    1
   201    70    74    1
   202    70    80    1
   203    70    81    1
   204    70    85    1
   205    70    87    1
   206    71    75    1
   207    71   111    1
   208    71   114    1
   209    71   119    1
   210    71   120    1
   211    71   123    1
   212    71   124    1
   213    72    92    1
   214    72    93    1
   215    72    96    1
   216    72    97    1
   217    72   102    1
   218    72   105    1
   219    72   106    1
   220    73    75    1
   221    73    98    1
   222    73    99    1
   223    73   107    1
   224    73   108    1
   225    74   110    1
   226    74   112    1
   227    74   113    1
   228    74   117    1
   229    74   118    1
   230    74   121    1
   231    74   122    1
   232    75    82    1
   233    75    86    1
   234    75    87    1
   235    76    90    1
   236    76    91    1
   237    76    98    1
   238    76   101    1
   239    77    91    1
   240    77    92    1
   241    77    98    1
   242    77    99    1
   243    78    92    1
   244    78    93    1
   245    78    99    1
   246    78   100    1
   247    78   102    1
   248    79    91    1
   249    79    92    1
   250    79    95    1
   251    79    96    1
   252    79   104    1
   253    79   105    1
   254    80    98    1
   255    80   101    1
   256    80   107    1
   257    80   110    1
   258    81   101    1
   259    81   103    1
   260    81   104    1
   261    81   110    1
   262    81   112    1
   263    81   113    1
   264    82   102    1
   265    82   105    1
   266    82   106    1
   267    82   111    1
   268    82   114    1
   269    83   104    1
   270    83   105    1
   271    83   113    1
   272    84   105    1
   273    84   106    1
   274    84   114    1
   275    85   107    1
   276    85   110    1
   277    85   115    1
   278    85   117    1
   279    85   118    1
   280    86   108    1
   281    86   109    1
   282    86   111    1
   283    86   116    1
   284    86   119    1
   285    86   120    1
   286    87   113    1
   287    87   118    1
   288    87   119    1
   289    87   122    1
   290    87   123    1
   291    88   113    1
   292    88   122    1
   293    88   123    1
   294    89   114    1
   295    89   123    1
   296    89   124    1
   297   125   126    1
   298   125   128    1
   299   125   130    1
   300   125   132    1
   301   125   137    1
   302   125   166    1
   303   125   167    1
   304   125   175    1
   305   126   133    1
   306   126   144    1
   307   126   145    1
   308   126   146    1
   309   126   149    1
   310   126   150    1
   311   126   151    1
   312   127   128    1
   313   127   152    1
   314   127   153    1
   315   127   156    1
   316   127   157    1
   317   127   163    1
   318   127   165    1
   319   127   166    1
   320   128   135    1
   321   128   138    1
   322   128   139    1
   323   128   141    1
   324   128   142    1
   325   128   143    1
   326   129   130    1
   327   129   137    1
   328   129   161    1
   329   129   162    1
   330   129   164    1
   331   129   170    1
   332   129   171    1
   333   129   173    1
   334   130   134    1
   335   130   135    1
   336   130   139    1
   337   130   140    1
   338   130   141    1
   339   130   144    1
   340   131   132    1
   341   131   137    1
   342   131   169    1
   343   131   170    1
   344   131   177    1
   345   131   178    1
   346   131   180    1
   347   131   181    1
   348   132   135    1
   349   132   136    1
   350   132   142    1
   351   132   143    1
   352   132   147    1
   353   132   149    1
   354   133   137    1
   355   133   173    1
   356   133   176    1
   357   133   181    1
   358   133   182    1
   359   133   185    1
   360   133   186    1
   361   134   154    1
   362   134   155    1
   363   134   158    1
   364   134   159    1
   365   134   164    1
   366   134   167    1
   367   134   168    1
   368   135   137    1
   369   135   160    1
   370   135   161    1
   371   135   169    1
   372   135   170    1
   373   136   172    1
   374   136   174    1
   375   136   175    1
   376   136   179    1
   377   136   180    1
   378   136   183    1
   379   136   184    1
   380   137   144    1
   381   137   148    1
   382   137   149    1
   383   138   152    1
   384   138   153    1
   385   138   160    1
   386   138   163    1
   387   139   153    1
   388   139   154    1
   389   139   160    1
   390   139   161    1
   391   140   154    1
   392   140   155    1
   393   140   161    1
   394   140   162    1
   395   140   164    1
   396   141   153    1
   397   141   154    1
   398   141   157    1
   399   141   158    1
   400   141   166    1
   401   141   167    1
   402   142   160    1
   403   142   163    1
   404   142   169    1
   405   142   172    1
   406   143   163    1
   407   143   165    1
   408   143   166    1
   409   143   172    1
   410   143   174    1
   411   143   175    1
   412   144   164    1
   413   144   167    1
   414   144   168    1
   415   144   173    1
   416   144   176    1
   417   145   166    1
   418   145   167    1
   419   145   175    1
   420   146   167    1
   421   146   168    1
   422   146   176    1
   423   147   169    1
   424   147   172    1
   425   147   177    1
   426   147   179    1
   427   147   180    1
   428   148   170    1
   429   148   171    1
   430   148   173    1
   431   148   178    1
   432   148   181    1
   433   148   182    1
   434   149   175    1
   435   149   180    1
   436   149   181    1
   437   149   184    1
   438   149   185    1
   439   150   175    1
   440   150   184    1
   441   150   185    1
   442   151   176    1
   443   151   185    1
   444   151   186    1
   445   187   188    1
   446   187   190    1
   447   187   192    1
   448   187   194    1
   449   187   199    1
   450   187   228    1
   451   187   229    1
   452   187   237    1
   453   188   195    1
   454   188   206    1
   455   188   207    1
   456   188   208    1
   457   188   211    1
   458   188   212    1
   459   188   213    1
   460   189   190    1
   461   189   214    1
   462   189   215    1
   463   189   218    1
   464   189   219    1
   465   189   225    1
   466   189   227    1
   467   189   228    1
   468   190   197    1
   469   190   200    1
   470   190   201    1
   471   190   203    1
   472   190   204    1
   473   190   205    1
   474   191   192    1
   475   191   199    1
   476   191   223    1
   477   191   224    1
   478   191   226    1
   479   191   232    1
   480   191   233    1
   481   191   235    1
   482   192   196    1
   483   192   197    1
   484   192   201    1
   485   192   202    1
   486   192   203    1
   487   192   206    1
   488   193   194    1
   489   193   199    1
   490   193   231    1
   491   193   232    1
   492   193   239    1
   493   193   240    1
   494   193   242    1
   495   193   243    1
   496   194   197    1
   497   194   198    1
   498   194   204    1
   499   194   205    1
   500   194   209    1
   501   194   211    1
   502   195   199    1
   503   195   235    1
   504   195   238    1
   505   195   243    1
   506   195   244    1
   507   195   247    1
   508   195   248    1
   509   196   216    1
   510   196   217    1
   511   196   220    1
   512   196   221    1
   513   196   226    1
   514   196   229    1
   515   196   230    1
   516   197   199    1
   517   197   222    1
   518   197   223    1
   519   197   231    1
   520   197   232    1
   521   198   234    1
   522   198   236    1
   523   198   237    1
   524   198   241    1
   525   198   242    1
   526   198   245    1
   527   198   246    1
   528   199   206    1
   529   199   210    1
   530   199   211    1
   531   200   214    1
   532   200   215    1
   533   200   222    1
   534   200   225    1
   535   201   215    1
   536   201   216    1
   537   201   222    1
   538   201   223    1
   539   202   216    1
   540   202   217    1
   541   202   223    1
   542   202   224    1
   543   202   226    1
   544   203   215    1
   545   203   216    1
   546   203   219    1
   547   203   220    1
   548   203   228    1
   549   203   229    1
   550   204   222    1
   551   204   225    1
   552   204   231    1
   553   204   234    1
   554   205   225    1
   555   205   227    1
   556   205   228    1
   557   205   234    1
   558   205   236    1
   559   205   237    1
   560   206   226    1
   561   206   229    1
   562   206   230    1
   563   206   235    1
   564   206   238    1
   565   207   228    1
   566   207   229    1
   567   207   237    1
   568   208   229    1
   569   208   230    1
   570   208   238    1
   571   209   231    1
   572   209   234    1
   573   209   239    1
   574   209   241    1
   575   209   242    1
   576   210   232    1
   577   210   233    1
   578   210   235    1
   579   210   240    1
   580   210   243    1
   581   210   244    1
   582   211   237    1
   583   211   242    1
   584   211   243    1
   585   211   246    1
   586   211   247    1
   587   212   237    1
   588   212   246    1
   589   212   247    1
   590   213   238    1
   591   213   247    1
   592   213   248    1
   593   249   250    1
   594   249   252    1
   595   249   254    1
   596   249   256    1
   597   249   261    1
   598   249   290    1
   599   249   291    1
   600   249   299    1
   601   250   257    1
   602   250   268    1
   603   250   269    1
   604   250   270    1
   605   250   273    1
   606   250   274    1
   607   250   275    1
   608   251   252    1
   609   251   276    1
   610   251   277    1
   611   251   280    1
   612   251   281    1
   613   251   287    1
   614   251   289    1
   615   251   290    1
   616   252   259    1
   617   252   262    1
   618   252   263    1
   619   252   265    1
   620   252   266    1
   621   252   267    1
   622   253   254    1
   623   253   261    1
   624   253   285    1
   625   253   286    1
   626   253   288    1
   627   253   294    1
   628   253   295    1
   629   253   297    1
   630   254   258    1
   631   254   259    1
   632   254   263    1
   633   254   264    1
   634   254   265    1
   635   254   268    1
   636   255   256    1
   637   255   261    1
   638   255   293    1
   639   255   294    1
   640   255   301    1
   641   255   302    1
   642   255   304    1
   643   255   305    1
   644   256   259    1
   645   256   260    1
   646   256   266    1
   647   256   267    1
   648   256   271    1
   649   256   273    1
   650   257   261    1
   651   257   297    1
   652   257   300    1
   653   257   305    1
   654   257   306    1
   655   257   309    1
   656   257   310    1
   657   258   278    1
   658   258   279    1
   659   258   282    1
   660   258   283    1
   661   258   288    1
   662   258   291    1
   663   258   292    1
   664   259   261    1
   665   259   284    1
   666   259   285    1
   667   259   293    1
   668   259   294    1
   669   260   296    1
   670   260   298    1
   671   260   299    1
   672   260   303    1
   673   260   304    1
   674   260   307    1
   675   260   308    1
   676   261   268    1
   677   261   272    1
   678   261   273    1
   679   262   276    1
   680   262   277    1
   681   262   284    1
   682   262   287    1
   683   263   277    1
   684   263   278    1
   685   263   284    1
   686   263   285    1
   687   264   278    1
   688   264   279    1
   689   264   285    1
   690   264   286    1
   691   264   288    1
   692   265   277    1
   693   265   278    1
   694   265   281    1
   695   265   282    1
   696   265   290    1
   697   265   291    1
   698   266   284    1
   699   266   287    1
   700   266   293    1
   701   266   296    1
   702   267   287    1
   703   267   289    1
   704   267   290    1
   705   267   296    1
   706   267   298    1
   707   267   299    1
   708   268   288    1
   709   268   291    1
   710   268   292    1
   711   268   297    1
   712   268   300    1
   713   269   290    1
   714   269   291    1
   715   269   299    1
   716   270   291    1
   717   270   292    1
   718   270   300    1
   719   271   293    1
   720   271   296    1
   721   271   301    1
   722   271   303    1
   723   271   304    1
   724   272   294    1
   725   272   295    1
   726   272   297    1
   727   272   302    1
   728   272   305    1
   729   272   306    1
   730   273   299    1
   731   273   304    1
   732   273   305    1
   733   273   308    1
   734   273   309    1
   735   274   299    1
   736   274   308    1
   737   274   309    1
   738   275   300    1
   739   275   309    1
   740   275   310    1
   741   311   312    1
   742   311   314    1
   743   311   316    1
   744   311   318    1
   745   311   323    1
   746   311   352    1
   747   311   353    1
   748   311   361    1
   749   312   319    1
   750   312   330    1
   751   312   331    1
   752   312   332    1
   753   312   335    1
   754   312   336    1
   755   312   337    1
   756   313   314    1
   757   313   338    1
   758   313   339    1
   759   313   342    1
   760   313   343    1
   761   313   349    1
   762   313   351    1
   763   313   352    1
   764   314   321    1
   765   314   324    1
   766   314   325    1
   767   314   327    1
   768   314   328    1
   769   314   329    1
   770   315   316    1
   771   315   323    1
   772   315   347    1
   773   315   348    1
   774   315   350    1
   775   315   356    1
   776   315   357    1
   777   315   359    1
   778   316   320    1
   779   316   321    1
   780   316   325    1
   781   316   326    1
   782   316   327    1
   783   316   330    1
   784   317   318    1
   785   317   323    1
   786   317   355    1
   787   317   356    1
   788   317   363    1
   789   317   364    1
   790   317   366    1
   791   317   367    1
   792   318   321    1
   793   318   322    1
   794   318   328    1
   795   318   329    1
   796   318   333    1
   797   318   335    1
   798   319   323    1
   799   319   359    1
   800   319   362    1
   801   319   367    1
   802   319   368    1
   803   319   371    1
   804   319   372    1
   805   320   340    1
   806   320   341    1
   807   320   344    1
   808   320   345    1
   809   320   350    1
   810   320   353    1
   811   320   354    1
   812   321   323    1
   813   321   346    1
   814   321   347    1
   815   321   355    1
   816   321   356    1
   817   322   358    1
   818   322   360    1
   819   322   361    1
   820   322   365    1
   821   322   366    1
   822   322   369    1
   823   322   370    1
   824   323   330    1
   825   323   334    1
   826   323   335    1
   827   324   338    1
   828   324   339    1
   829   324   346    1
   830   324   349    1
   831   325   339    1
   832   325   340    1
   833   325   346    1
   834   325   347    1
   835   326   340    1
   836   326   341    1
   837   326   347    1
   838   326   348    1
   839   326   350    1
   840   327   339    1
   841   327   340    1
   842   327   343    1
   843   327   344    1
   844   327   352    1
   845   327   353    1
   846   328   346    1
   847   328   349    1
   848   328   355    1
   849   328   358    1
   850   329   349    1
   851   329   351    1
   852   329   352    1
   853   329   358    1
   854   329   360    1
   855   329   361    1
   856   330   350    1
   857   330   353    1
   858   330   354    1
   859   330   359    1
   860   330   362    1
   861   331   352    1
   862   331   353    1
   863   331   361    1
   864   332   353    1
   865   332   354    1
   866   332   362    1
   867   333   355    1
   868   333   358    1
   869   333   363    1
   870   333   365    1
   871   333   366    1
   872   334   356    1
   873   334   357    1
   874   334   359    1
   875   334   364    1
   876   334   367    1
   877   334   368    1
   878   335   361    1
   879   335   366    1
   880   335   367    1
   881   335   370    1
   882   335   371    1
   883   336   361    1
   884   336   370    1
   885   336   371    1
   886   337   362    1
   887   337   371    1
   888   337   372    1
   889   373   374    1
   890   373   376    1
   891   373   378    1
   892   373   380    1
   893   373   385    1
   894   373   414    1
   895   373   415    1
   896   373   423    1
   897   374   381    1
   898   374   392    1
   899   374   393    1
   900   374   394    1
   901   374   397    1
   902   374   398    1
   903   374   399    1
   904   375   376    1
   905   375   400    1
   906   375   401    1
   907   375   404    1
   908   375   405    1
   909   375   411    1
   910   375   413    1
   911   375   414    1
   912   376   383    1
   913   376   386    1
   914   376   387    1
   915   376   389    1
   916   376   390    1
   917   376   391    1
   918   377   378    1
   919   377   385    1
   920   377   409    1
   921   377   410    1
   922   377   412    1
   923   377   418    1
   924   377   419    1
   925   377   421    1
   926   378   382    1
   927   378   383    1
   928   378   387    1
   929   378   388    1
   930   378   389    1
   931   378   392    1
   932   379   380    1
   933   379   385    1
   934   379   417    1
   935   379   418    1
   936   379   425    1
   937   379   426    1
   938   379   428    1
   939   379   429    1
   940   380   383    1
   941   380   384    1
   942   380   390    1
   943   380   391    1
   944   380   395    1
   945   380   397    1
   946   381   385    1
   947   381   421    1
   948   381   424    1
   949   381   429    1
   950   381   430    1
   951   381   433    1
   952   381   434    1
   953   382   402    1
   954   382   403    1
   955   382   406    1
   956   382   407    1
   957   382   412    1
   958   382   415    1
   959   382   416    1
   960   383   385    1
   961   383   408    1
   962   383   409    1
   963   383   417    1
   964   383   418    1
   965   384   420    1
   966   384   422    1
   967   384   423    1
   968   384   427    1
   969   384   428    1
   970   384   431    1
   971   384   432    1
   972   385   392    1
   973   385   396    1
   974   385   397    1
   975   386   400    1
   976   386   401    1
   977   386   408    1
   978   386   411    1
   979   387   401    1
   980   387   402    1
   981   387   408    1
   982   387   409    1
   983   388   402    1
   984   388   403    1
   985   388   409    1
   986   388   410    1
   987   388   412    1
   988   389   401    1
   989   389   402    1
   990   389   405    1
   991   389   406    1
   992   389   414    1
   993   389   415    1
   994   390   408    1
   995   390   411    1
   996   390   417    1
   997   390   420    1
   998   391   411    1
   999   391   413    1
  1000   391   414    1
  1001   391   420    1
  1002   391   422    1
  1003   391   423    1
  1004   392   412    1
  1005   392   415    1
  1006   392   416    1
  1007   392   421    1
  1008   392   424    1
  1009   393   414    1
  1010   393   415    1
  1011   393   423    1
  1012   394   415    1
  1013   394   416    1
  1014   394   424    1
  1015   395   417    1
  1016   395   420    1
  1017   395   425    1
  1018   395   427    1
  1019   395   428    1
  1020   396   418    1
  1021   396   419    1
  1022   396   421    1
  1023   396   426    1
  1024   396   429    1
  1025   396   430    1
  1026   397   423    1
  1027   397   428    1
  1028   397   429    1
  1029   397   432    1
  1030   397   433    1
  1031   398   423    1
  1032   398   432    1
  1033   398   433    1
  1034   399   424    1
  1035   399   433    1
  1036   399   434    1
  1037   435   436    1
  1038   435   438    1
  1039   435   440    1
  1040   435   442    1
  1041   435   447    1
  1042   435   476    1
  1043   435   477    1
  1044   435   485    1
  1045   436   443    1
  1046   436   454    1
  1047   436   455    1
  1048   436   456    1
  1049   436   459    1
  1050   436   460    1
  1051   436   461    1
  1052   437   438    1
  1053   437   462    1
  1054   437   463    1
  1055   437   466    1
  1056   437   467    1
  1057   437   473    1
  1058   437   475    1
  1059   437   476    1
  1060   438   445    1
  1061   438   448    1
  1062   438   449    1
  1063   438   451    1
  1064   438   452    1
  1065   438   453    1
  1066   439   440    1
  1067   439   447    1
  1068   439   471    1
  1069   439   472    1
  1070   439   474    1
  1071   439   480    1
  1072   439   481    1
  1073   439   483    1
  1074   440   444    1
  1075   440   445    1
  1076   440   449    1
  1077   440   450    1
  1078   440   451    1
  1079   440   454    1
  1080   441   442    1
  1081   441   447    1
  1082   441   479    1
  1083   441   480    1
  1084   441   487    1
  1085   441   488    1
  1086   441   490    1
  1087   441   491    1
  1088   442   445    1
  1089   442   446    1
  1090   442   452    1
  1091   442   453    1
  1092   442   457    1
  1093   442   459    1
  1094   443   447    1
  1095   443   483    1
  1096   443   486    1
  1097   443   491    1
  1098   443   492    1
  1099   443   495    1
  1100   443   496    1
  1101   444   464    1
  1102   444   465    1
  1103   444   468    1
  1104   444   469    1
  1105   444   474    1
  1106   444   477    1
  1107   444   478    1
  1108   445   447    1
  1109   445   470    1
  1110   445   471    1
  1111   445   479    1
  1112   445   480    1
  1113   446   482    1
  1114   446   484    1
  1115   446   485    1
  1116   446   489    1
  1117   446   490    1
  1118   446   493    1
  1119   446   494    1
  1120   447   454    1
  1121   447   458    1
  1122   447   459    1
  1123   448   462    1
  1124   448   463    1
  1125   448   470    1
  1126   448   473    1
  1127   449   463    1
  1128   449   464    1
  1129   449   470    1
  1130   449   471    1
  1131   450   464    1
  1132   450   465    1
  1133   450   471    1
  1134   450   472    1
  1135   450   474    1
  1136   451   463    1
  1137   451   464    1
  1138   451   467    1
  1139   451   468    1
  1140   451   476    1
  1141   451   477    1
  1142   452   470    1
  1143   452   473    1
  1144   452   479    1
  1145   452   482    1
  1146   453   473    1
  1147   453   475    1
  1148   453   476    1
  1149   453   482    1
  1150   453   484    1
  1151   453   485    1
  1152   454   474    1
  1153   454   477    1
  1154   454   478    1
  1155   454   483    1
  1156   454   486    1
  1157   455   476    1
  1158   455   477    1
  1159   455   485    1
  1160   456   477    1
  1161   456   478    1
  1162   456   486    1
  1163   457   479    1
  1164   457   482    1
  1165   457   487    1
  1166   457   489    1
  1167   457   490    1
  1168   458   480    1
  1169   458   481    1
  1170   458   483    1
  1171   458   488    1
  1172   458   491    1
  1173   458   492    1
  1174   459   485    1
  1175   459   490    1
  1176   459   491    1
  1177   459   494    1
  1178   459   495    1
  1179   460   485    1
  1180   460   494    1
  1181   460   495    1
  1182   461   486    1
  1183   461   495    1
  1184   461   496    1
  1185   497   498    1
  1186   497   500    1
  1187   497   502    1
  1188   497   504    1
  1189   497   509    1
  1190   497   538    1
  1191   497   539    1
  1192   497   547    1
  1193   498   505    1
  1194   498   516    1
  1195   498   517    1
  1196   498   518    1
  1197   498   521    1
  1198   498   522    1
  1199   498   523    1
  1200   499   500    1
  1201   499   524    1
  1202   499   525    1
  1203   499   528    1
  1204   499   529    1
  1205   499   535    1
  1206   499   537    1
  1207   499   538    1
  1208   500   507    1
  1209   500   510    1
  1210   500   511    1
  1211   500   513    1
  1212   500   514    1
  1213   500   515    1
  1214   501   502    1
  1215   501   509    1
  1216   501   533    1
  1217   501   534    1
  1218   501   536    1
  1219   501   542    1
  1220   501   543    1
  1221   501   545    1
  1222   502   506    1
  1223   502   507    1
  1224   502   511    1
  1225   502   512    1
  1226   502   513    1
  1227   502   516    1
  1228   503   504    1
  1229   503   509    1
  1230   503   541    1
  1231   503   542    1
  1232   503   549    1
  1233   503   550    1
  1234   503   552    1
  1235   503   553    1
  1236   504   507    1
  1237   504   508    1
  1238   504   514    1
  1239   504   515    1
  1240   504   519    1
  1241   504   521    1
  1242   505   509    1
  1243   505   545    1
  1244   505   548    1
  1245   505   553    1
  1246   505   554    1
  1247   505   557    1
  1248   505   558    1
  1249   506   526    1
  1250   506   527    1
  1251   506   530    1
  1252   506   531    1
  1253   506   536    1
  1254   506   539    1
  1255   506   540    1
  1256   507   509    1
  1257   507   532    1
  1258   507   533    1
  1259   507   541    1
  1260   507   542    1
  1261   508   544    1
  1262   508   546    1
  1263   508   547    1
  1264   508   551    1
  1265   508   552    1
  1266   508   555    1
  1267   508   556    1
  1268   509   516    1
  1269   509   520    1
  1270   509   521    1
  1271   510   524    1
  1272   510   525    1
  1273   510   532    1
  1274   510   535    1
  1275   511   525    1
  1276   511   526    1
  1277   511   532    1
  1278   511   533    1
  1279   512   526    1
  1280   512   527    1
  1281   512   533    1
  1282   512   534    1
  1283   512   536    1
  1284   513   525    1
  1285   513   526    1
  1286   513   529    1
  1287   513   530    1
  1288   513   538    1
  1289   513   539    1
  1290   514   532    1
  1291   514   535    1
  1292   514   541    1
  1293   514   544    1
  1294   515   535    1
  1295   515   537    1
  1296   515   538    1
  1297   515   544    1
  1298   515   546    1
  1299   515   547    1
  1300   516   536    1
  1301   516   539    1
  1302   516   540    1
  1303   516   545    1
  1304   516   548    1
  1305   517   538    1
  1306   517   539    1
  1307   517   547    1
  1308   518   539    1
  1309   518   540    1
  1310   518   548    1
  1311   519   541    1
  1312   519   544    1
  1313   519   549    1
  1314   519   551    1
  1315   519   552    1
  1316   520   542    1
  1317   520   543    1
  1318   520   545    1
  1319   520   550    1
  1320   520   553    1
  1321   520   554    1
  1322   521   547    1
  1323   521   552    1
  1324   521   553    1
  1325   521   556    1
  1326   521   557    1
  1327   522   547    1
  1328   522   556    1
  1329   522   557    1
  1330   523   548    1
  1331   523   557    1
  1332   523   558    1
  1333   559   560    1
  1334   559   562    1
  1335   559   564    1
  1336   559   566    1
  1337   559   571    1
  1338   559   600    1
  1339   559   601    1
  1340   559   609    1
  1341   560   567    1
  1342   560   578    1
  1343   560   579    1
  1344   560   580    1
  1345   560   583    1
  1346   560   584    1
  1347   560   585    1
  1348   561   562    1
  1349   561   586    1
  1350   561   587    1
  1351   561   590    1
  1352   561   591    1
  1353   561   597    1
  1354   561   599    1
  1355   561   600    1
  1356   562   569    1
  1357   562   572    1
  1358   562   573    1
  1359   562   575    1
  1360   562   576    1
  1361   562   577    1
  1362   563   564    1
  1363   563   571    1
  1364   563   595    1
  1365   563   596    1
  1366   563   598    1
  1367   563   604    1
  1368   563   605    1
  1369   563   607    1
  1370   564   568    1
  1371   564   569    1
  1372   564   573    1
  1373   564   574    1
  1374   564   575    1
  1375   564   578    1
  1376   565   566    1
  1377   565   571    1
  1378   565   603    1
  1379   565   604    1
  1380   565   611    1
  1381   565   612    1
  1382   565   614    1
  1383   565   615    1
  1384   566   569    1
  1385   566   570    1
  1386   566   576    1
  1387   566   577    1
  1388   566   581    1
  1389   566   583    1
  1390   567   571    1
  1391   567   607    1
  1392   567   610    1
  1393   567   615    1
  1394   567   616    1
  1395   567   619    1
  1396   567   620    1
  1397   568   588    1
  1398   568   589    1
  1399   568   592    1
  1400   568   593    1
  1401   568   598    1
  1402   568   601    1
  1403   568   602    1
  1404   569   571    1
  1405   569   594    1
  1406   569   595    1
  1407   569   603    1
  1408   569   604    1
  1409   570   606    1
  1410   570   608    1
  1411   570   609    1
  1412   570   613    1
  1413   570   614    1
  1414   570   617    1
  1415   570   618    1
  1416   571   578    1
  1417   571   582    1
  1418   571   583    1
  1419   572   586    1
  1420   572   587    1
  1421   572   594    1
  1422   572   597    1
  1423   573   587    1
  1424   573   588    1
  1425   573   594    1
  1426   573   595    1
  1427   574   588    1
  1428   574   589    1
  1429   574   595    1
  1430   574   596    1
  1431   574   598    1
  1432   575   587    1
  1433   575   588    1
  1434   575   591    1
  1435   575   592    1
  1436   575   600    1
  1437   575   601    1
  1438   576   594    1
  1439   576   597    1
  1440   576   603    1
  1441   576   606    1
  1442   577   597    1
  1443   577   599    1
  1444   577   600    1
  1445   577   606    1
  1446   577   608    1
  1447   577   609    1
  1448   578   598    1
  1449   578   601    1
  1450   578   602    1
  1451   578   607    1
  1452   578   610    1
  1453   579   600    1
  1454   579   601    1
  1455   579   609    1
  1456   580   601    1
  1457   580   602    1
  1458   580   610    1
  1459   581   603    1
  1460   581   606    1
  1461   581   611    1
  1462   581   613    1
  1463   581   614    1
  1464   582   604    1
  1465   582   605    1
  1466   582   607    1
  1467   582   612    1
  1468   582   615    1
  1469   582   616    1
  1470   583   609    1
  1471   583   614    1
  1472   583   615    1
  1473   583   618    1
  1474   583   619    1
  1475   584   609    1
  1476   584   618    1
  1477   584   619    1
  1478   585   610    1
  1479   585   619    1
  1480   585   620    1
  1481   621   622    1
  1482   621   624    1
  1483   621   626    1
  1484   621   628    1
  1485   621   633    1
  1486   621   662    1
  1487   621   663    1
  1488   621   671    1
  1489   622   629    1
  1490   622   640    1
  1491   622   641    1
  1492   622   642    1
  1493   622   645    1
  1494   622   646    1
  1495   622   647    1
  1496   623   624    1
  1497   623   648    1
  1498   623   649    1
  1499   623   652    1
  1500   623   653    1
  1501   623   659    1
  1502   623   661    1
  1503   623   662    1
  1504   624   631    1
  1505   624   634    1
  1506   624   635    1
  1507   624   637    1
  1508   624   638    1
  1509   624   639    1
  1510   625   626    1
  1511   625   633    1
  1512   625   657    1
  1513   625   658    1
  1514   625   660    1
  1515   625   666    1
  1516   625   667    1
  1517   625   669    1
  1518   626   630    1
  1519   626   631    1
  1520   626   635    1
  1521   626   636    1
  1522   626   637    1
  1523   626   640    1
  1524   627   628    1
  1525   627   633    1
  1526   627   665    1
  1527   627   666    1
  1528   627   673    1
  1529   627   674    1
  1530   627   676    1
  1531   627   677    1
  1532   628   631    1
  1533   628   632    1
  1534   628   638    1
  1535   628   639    1
  1536   628   643    1
  1537   628   645    1
  1538   629   633    1
  1539   629   669    1
  1540   629   672    1
  1541   629   677    1
  1542   629   678    1
  1543   629   681    1
  1544   629   682    1
  1545   630   650    1
  1546   630   651    1
  1547   630   654    1
  1548   630   655    1
  1549   630   660    1
  1550   630   663    1
  1551   630   664    1
  1552   631   633    1
  1553   631   656    1
  1554   631   657    1
  1555   631   665    1
  1556   631   666    1
  1557   632   668    1
  1558   632   670    1
  1559   632   671    1
  1560   632   675    1
  1561   632   676    1
  1562   632   679    1
  1563   632   680    1
  1564   633   640    1
  1565   633   644    1
  1566   633   645    1
  1567   634   648    1
  1568   634   649    1
  1569   634   656    1
  1570   634   659    1
  1571   635   649    1
  1572   635   650    1
  1573   635   656    1
  1574   635   657    1
  1575   636   650    1
  1576   636   651    1
  1577   636   657    1
  1578   636   658    1
  1579   636   660    1
  1580   637   649    1
  1581   637   650    1
  1582   637   653    1
  1583   637   654    1
  1584   637   662    1
  1585   637   663    1
  1586   638   656    1
  1587   638   659    1
  1588   638   665    1
  1589   638   668    1
  1590   639   659    1
  1591   639   661    1
  1592   639   662    1
  1593   639   668    1
  1594   639   670    1
  1595   639   671    1
  1596   640   660    1
  1597   640   663    1
  1598   640   664    1
  1599   640   669    1
  1600   640   672    1
  1601   641   662    1
  1602   641   663    1
  1603   641   671    1
  1604   642   663    1
  1605   642   664    1
  1606   642   672    1
  1607   643   665    1
  1608   643   668    1
  1609   643   673    1
  1610   643   675    1
  1611   643   676    1
  1612   644   666    1
  1613   644   667    1
  1614   644   669    1
  1615   644   674    1
  1616   644   677    1
  1617   644   678    1
  1618   645   671    1
  1619   645   676    1
  1620   645   677    1
  1621   645   680    1
  1622   645   681    1
  1623   646   671    1
  1624   646   680    1
  1625   646   681    1
  1626   647   672    1
  1627   647   681    1
  1628   647   682    1
  1629   683   684    1
  1630   683   686    1
  1631   683   688    1
  1632   683   690    1
  1633   683   695    1
  1634   683   724    1
  1635   683   725    1
  1636   683   733    1
  1637   684   691    1
  1638   684   702    1
  1639   684   703    1
  1640   684   704    1
  1641   684   707    1
  1642   684   708    1
  1643   684   709    1
  1644   685   686    1
  1645   685   710    1
  1646   685   711    1
  1647   685   714    1
  1648   685   715    1
  1649   685   721    1
  1650   685   723    1
  1651   685   724    1
  1652   686   693    1
  1653   686   696    1
  1654   686   697    1
  1655   686   699    1
  1656   686   700    1
  1657   686   701    1
  1658   687   688    1
  1659   687   695    1
  1660   687   719    1
  1661   687   720    1
  1662   687   722    1
  1663   687   728    1
  1664   687   729    1
  1665   687   731    1
  1666   688   692    1
  1667   688   693    1
  1668   688   697    1
  1669   688   698    1
  1670   688   699    1
  1671   688   702    1
  1672   689   690    1
  1673   689   695    1
  1674   689   727    1
  1675   689   728    1
  1676   689   735    1
  1677   689   736    1
  1678   689   738    1
  1679   689   739    1
  1680   690   693    1
  1681   690   694    1
  1682   690   700    1
  1683   690   701    1
  1684   690   705    1
  1685   690   707    1
  1686   691   695    1
  1687   691   731    1
  1688   691   734    1
  1689   691   739    1
  1690   691   740    1
  1691   691   743    1
  1692   691   744    1
  1693   692   712    1
  1694   692   713    1
  1695   692   716    1
  1696   692   717    1
  1697   692   722    1
  1698   692   725    1
  1699   692   726    1
  1700   693   695    1
  1701   693   718    1
  1702   693   719    1
  1703   693   727    1
  1704   693   728    1
  1705   694   730    1
  1706   694   732    1
  1707   694   733    1
  1708   694   737    1
  1709   694   738    1
  1710   694   741    1
  1711   694   742    1
  1712   695   702    1
  1713   695   706    1
  1714   695   707    1
  1715   696   710    1
  1716   696   711    1
  1717   696   718    1
  1718   696   721    1
  1719   697   711    1
  1720   697   712    1
  1721   697   718    1
  1722   697   719    1
  1723   698   712    1
  1724   698   713    1
  1725   698   719    1
  1726   698   720    1
  1727   698   722    1
  1728   699   711    1
  1729   699   712    1
  1730   699   715    1
  1731   699   716    1
  1732   699   724    1
  1733   699   725    1
  1734   700   718    1
  1735   700   721    1
  1736   700   727    1
  1737   700   730    1
  1738   701   721    1
  1739   701   723    1
  1740   701   724    1
  1741   701   730    1
  1742   701   732    1
  1743   701   733    1
  1744   702   722    1
  1745   702   725    1
  1746   702   726    1
  1747   702   731    1
  1748   702   734    1
  1749   703   724    1
  1750   703   725    1
  1751   703   733    1
  1752   704   725    1
  1753   704   726    1
  1754   704   734    1
  1755   705   727    1
  1756   705   730    1
  1757   705   735    1
  1758   705   737    1
  1759   705   738    1
  1760   706   728    1
  1761   706   729    1
  1762   706   731    1
  1763   706   736    1
  1764   706   739    1
  1765   706   740    1
  1766   707   733    1
  1767   707   738    1
  1768   707   739    1
  1769   707   742    1
  1770   707   743    1
  1771   708   733    1
  1772   708   742    1
  1773   708   743    1
  1774   709   734    1
  1775   709   743    1
  1776   709   744    1
  1777   745   746    1
  1778   745   748    1
  1779   745   750    1
  1780   745   752    1
  1781   745   757    1
  1782   745   786    1
  1783   745   787    1
  1784   745   795    1
  1785   746   753    1
  1786   746   764    1
  1787   746   765    1
  1788   746   766    1
  1789   746   769    1
  1790   746   770    1
  1791   746   771    1
  1792   747   748    1
  1793   747   772    1
  1794   747   773    1
  1795   747   776    1
  1796   747   777    1
  1797   747   783    1
  1798   747   785    1
  1799   747   786    1
  1800   748   755    1
  1801   748   758    1
  1802   748   759    1
  1803   748   761    1
  1804   748   762    1
  1805   748   763    1
  1806   749   750    1
  1807   749   757    1
  1808   749   781    1
  1809   749   782    1
  1810   749   784    1
  1811   749   790    1
  1812   749   791    1
  1813   749   793    1
  1814   750   754    1
  1815   750   755    1
  1816   750   759    1
  1817   750   760    1
  1818   750   761    1
  1819   750   764    1
  1820   751   752    1
  1821   751   757    1
  1822   751   789    1
  1823   751   790    1
  1824   751   797    1
  1825   751   798    1
  1826   751   800    1
  1827   751   801    1
  1828   752   755    1
  1829   752   756    1
  1830   752   762    1
  1831   752   763    1
  1832   752   767    1
  1833   752   769    1
  1834   753   757    1
  1835   753   793    1
  1836   753   796    1
  1837   753   801    1
  1838   753   802    1
  1839   753   805    1
  1840   753   806    1
  1841   754   774    1
  1842   754   775    1
  1843   754   778    1
  1844   754   779    1
  1845   754   784    1
  1846   754   787    1
  1847   754   788    1
  1848   755   757    1
  1849   755   780    1
  1850   755   781    1
  1851   755   789    1
  1852   755   790    1
  1853   756   792    1
  1854   756   794    1
  1855   756   795    1
  1856   756   799    1
  1857   756   800    1
  1858   756   803    1
  1859   756   804    1
  1860   757   764    1
  1861   757   768    1
  1862   757   769    1
  1863   758   772    1
  1864   758   773    1
  1865   758   780    1
  1866   758   783    1
  1867   759   773    1
  1868   759   774    1
  1869   759   780    1
  1870   759   781    1
  1871   760   774    1
  1872   760   775    1
  1873   760   781    1
  1874   760   782    1
  1875   760   784    1
  1876   761   773    1
  1877   761   774    1
  1878   761   777    1
  1879   761   778    1
  1880   761   786    1
  1881   761   787    1
  1882   762   780    1
  1883   762   783    1
  1884   762   789    1
  1885   762   792    1
  1886   763   783    1
  1887   763   785    1
  1888   763   786    1
  1889   763   792    1
  1890   763   794    1
  1891   763   795    1
  1892   764   784    1
  1893   764   787    1
  1894   764   788    1
  1895   764   793    1
  1896   764   796    1
  1897   765   786    1
  1898   765   787    1
  1899   765   795    1
  1900   766   787    1
  1901   766   788    1
  1902   766   796    1
  1903   767   789    1
  1904   767   792    1
  1905   767   797    1
  1906   767   799    1
  1907   767   800    1
  1908   768   790    1
  1909   768   791    1
  1910   768   793    1
  1911   768   798    1
  1912   768   801    1
  1913   768   802    1
  1914   769   795    1
  1915   769   800    1
  1916   769   801    1
  1917   769   804    1
  1918   769   805    1
  1919   770   795    1
  1920   770   804    1
  1921   770   805    1
  1922   771   796    1
  1923   771   805    1
  1924   771   806    1
  1925   807   808    1
  1926   807   810    1
  1927   807   812    1
  1928   807   814    1
  1929   807   819    1
  1930   807   848    1
  1931   807   849    1
  1932   807   857    1
  1933   808   815    1
  1934   808   826    1
  1935   808   827    1
  1936   808   828    1
  1937   808   831    1
  1938   808   832    1
  1939   808   833    1
  1940   809   810    1
  1941   809   834    1
  1942   809   835    1
  1943   809   838    1
  1944   809   839    1
  1945   809   845    1
  1946   809   847    1
  1947   809   848    1
  1948   810   817    1
  1949   810   820    1
  1950   810   821    1
  1951   810   823    1
  1952   810   824    1
  1953   810   825    1
  1954   811   812    1
  1955   811   819    1
  1956   811   843    1
  1957   811   844    1
  1958   811   846    1
  1959   811   852    1
  1960   811   853    1
  1961   811   855    1
  1962   812   816    1
  1963   812   817    1
  1964   812   821    1
  1965   812   822    1
  1966   812   823    1
  1967   812   826    1
  1968   813   814    1
  1969   813   819    1
  1970   813   851    1
  1971   813   852    1
  1972   813   859    1
  1973   813   860    1
  1974   813   862    1
  1975   813   863    1
  1976   814   817    1
  1977   814   818    1
  1978   814   824    1
  1979   814   825    1
  1980   814   829    1
  1981   814   831    1
  1982   815   819    1
  1983   815   855    1
  1984   815   858    1
  1985   815   863    1
  1986   815   864    1
  1987   815   867    1
  1988   815   868    1
  1989   816   836    1
  1990   816   837    1
  1991   816   840    1
  1992   816   841    1
  1993   816   846    1
  1994   816   849    1
  1995   816   850    1
  1996   817   819    1
  1997   817   842    1
  1998   817   843    1
  1999   817   851    1
  2000   817   852    1
  2001   818   854    1
  2002   818   856    1
  2003   818   857    1
  2004   818   861    1
  2005   818   862    1
  2006   818   865    1
  2007   818   866    1
  2008   819   826    1
  2009   819   830    1
  2010   819   831    1
  2011   820   834    1
  2012   820   835    1
  2013   820   842    1
  2014   820   845    1
  2015   821   835    1
  2016   821   836    1
  2017   821   842    1
  2018   821   843    1
  2019   822   836    1
  2020   822   837    1
  2021   822   843    1
  2022   822   844    1
  2023   822   846    1
  2024   823   835    1
  2025   823   836    1
  2026   823   839    1
  2027   823   840    1
  2028   823   848    1
  2029   823   849    1
  2030   824   842    1
  2031   824   845    1
  2032   824   851    1
  2033   824   854    1
  2034   825   845    1
  2035   825   847    1
  2036   825   848    1
  2037   825   854    1
  2038   825   856    1
  2039   825   857    1
  2040   826   846    1
  2041   826   849    1
  2042   826   850    1
  2043   826   855    1
  2044   826   858    1
  2045   827   848    1
  2046   827   849    1
  2047   827   857    1
  2048   828   849    1
  2049   828   850    1
  2050   828   858    1
  2051   829   851    1
  2052   829   854    1
  2053   829   859    1
  2054   829   861    1
  2055   829   862    1
  2056   830   852    1
  2057   830   853    1
  2058   830   855    1
  2059   830   860    1
  2060   830   863    1
  2061   830   864    1
  2062   831   857    1
  2063   831   862    1
  2064   831   863    1
  2065   831   866    1
  2066   831   867    1
  2067   832   857    1
  2068   832   866    1
  2069   832   867    1
  2070   833   858    1
  2071   833   867    1
  2072   833   868    1
  2073   869   870    1
  2074   869   872    1
  2075   869   874    1
  2076   869   876    1
  2077   869   881    1
  2078   869   910    1
  2079   869   911    1
  2080   869   919    1
  2081   870   877    1
  2082   870   888    1
  2083   870   889    1
  2084   870   890    1
  2085   870   893    1
  2086   870   894    1
  2087   870   895    1
  2088   871   872    1
  2089   871   896    1
  2090   871   897    1
  2091   871   900    1
  2092   871   901    1
  2093   871   907    1
  2094   871   909    1
  2095   871   910    1
  2096   872   879    1
  2097   872   882    1
  2098   872   883    1
  2099   872   885    1
  2100   872   886    1
  2101   872   887    1
  2102   873   874    1
  2103   873   881    1
  2104   873   905    1
  2105   873   906    1
  2106   873   908    1
  2107   873   914    1
  2108   873   915    1
  2109   873   917    1
  2110   874   878    1
  2111   874   879    1
  2112   874   883    1
  2113   874   884    1
  2114   874   885    1
  2115   874   888    1
  2116   875   876    1
  2117   875   881    1
  2118   875   913    1
  2119   875   914    1
  2120   875   921    1
  2121   875   922    1
  2122   875   924    1
  2123   875   925    1
  2124   876   879    1
  2125   876   880    1
  2126   876   886    1
  2127   876   887    1
  2128   876   891    1
  2129   876   893    1
  2130   877   881    1
  2131   877   917    1
  2132   877   920    1
  2133   877   925    1
  2134   877   926    1
  2135   877   929    1
  2136   877   930    1
  2137   878   898    1
  2138   878   899    1
  2139   878   902    1
  2140   878   903    1
  2141   878   908    1
  2142   878   911    1
  2143   878   912    1
  2144   879   881    1
  2145   879   904    1
  2146   879   905    1
  2147   879   913    1
  2148   879   914    1
  2149   880   916    1
  2150   880   918    1
  2151   880   919    1
  2152   880   923    1
  2153   880   924    1
  2154   880   927    1
  2155   880   928    1
  2156   881   888    1
  2157   881   892    1
  2158   881   893    1
  2159   882   896    1
  2160   882   897    1
  2161   882   904    1
  2162   882   907    1
  2163   883   897    1
  2164   883   898    1
  2165   883   904    1
  2166   883   905    1
  2167   884   898    1
  2168   884   899    1
  2169   884   905    1
  2170   884   906    1
  2171   884   908    1
  2172   885   897    1
  2173   885   898    1
  2174   885   901    1
  2175   885   902    1
  2176   885   910    1
  2177   885   911    1
  2178   886   904    1
  2179   886   907    1
  2180   886   913    1
  2181   886   916    1
  2182   887   907    1
  2183   887   909    1
  2184   887   910    1
  2185   887   916    1
  2186   887   918    1
  2187   887   919    1
  2188   888   908    1
  2189   888   911    1
  2190   888   912    1
  2191   888   917    1
  2192   888   920    1
  2193   889   910    1
  2194   889   911    1
  2195   889   919    1
  2196   890   911    1
  2197   890   912    1
  2198   890   920    1
  2199   891   913    1
  2200   891   916    1
  2201   891   921    1
  2202   891   923    1
  2203   891   924    1
  2204   892   914    1
  2205   892   915    1
  2206   892   917    1
  2207   892   922    1
  2208   892   925    1
  2209   892   926    1
  2210   893   919    1
  2211   893   924    1
  2212   893   925    1
  2213   893   928    1
  2214   893   929    1
  2215   894   919    1
  2216   894   928    1
  2217   894   929    1
  2218   895   920    1
  2219   895   929    1
  2220   895   930    1
  2221   931   932    1
  2222   931   934    1
  2223   931   936    1
  2224   931   938    1
  2225   931   943    1
  2226   931   972    1
  2227   931   973    1
  2228   931   981    1
  2229   932   939    1
  2230   932   950    1
  2231   932   951    1
  2232   932   952    1
  2233   932   955    1
  2234   932   956    1
  2235   932   957    1
  2236   933   934    1
  2237   933   958    1
  2238   933   959    1
  2239   933   962    1
  2240   933   963    1
  2241   933   969    1
  2242   933   971    1
  2243   933   972    1
  2244   934   941    1
  2245   934   944    1
  2246   934   945    1
  2247   934   947    1
  2248   934   948    1
  2249   934   949    1
  2250   935   936    1
  2251   935   943    1
  2252   935   967    1
  2253   935   968    1
  2254   935   970    1
  2255   935   976    1
  2256   935   977    1
  2257   935   979    1
  2258   936   940    1
  2259   936   941    1
  2260   936   945    1
  2261   936   946    1
  2262   936   947    1
  2263   936   950    1
  2264   937   938    1
  2265   937   943    1
  2266   937   975    1
  2267   937   976    1
  2268   937   983    1
  2269   937   984    1
  2270   937   986    1
  2271   937   987    1
  2272   938   941    1
  2273   938   942    1
  2274   938   948    1
  2275   938   949    1
  2276   938   953    1
  2277   938   955    1
  2278   939   943    1
  2279   939   979    1
  2280   939   982    1
  2281   939   987    1
  2282   939   988    1
  2283   939   991    1
  2284   939   992    1
  2285   940   960    1
  2286   940   961    1
  2287   940   964    1
  2288   940   965    1
  2289   940   970    1
  2290   940   973    1
  2291   940   974    1
  2292   941   943    1
  2293   941   966    1
  2294   941   967    1
  2295   941   975    1
  2296   941   976    1
  2297   942   978    1
  2298   942   980    1
  2299   942   981    1
  2300   942   985    1
  2301   942   986    1
  2302   942   989    1
  2303   942   990    1
  2304   943   950    1
  2305   943   954    1
  2306   943   955    1
  2307   944   958    1
  2308   944   959    1
  2309   944   966    1
  2310   944   969    1
  2311   945   959    1
  2312   945   960    1
  2313   945   966    1
  2314   945   967    1
  2315   946   960    1
  2316   946   961    1
  2317   946   967    1
  2318   946   968    1
  2319   946   970    1
  2320   947   959    1
  2321   947   960    1
  2322   947   963    1
  2323   947   964    1
  2324   947   972    1
  2325   947   973    1
  2326   948   966    1
  2327   948   969    1
  2328   948   975    1
  2329   948   978    1
  2330   949   969    1
  2331   949   971    1
  2332   949   972    1
  2333   949   978    1
  2334   949   980    1
  2335   949   981    1
  2336   950   970    1
  2337   950   973    1
  2338   950   974    1
  2339   950   979    1
  2340   950   982    1
  2341   951   972    1
  2342   951   973    1
  2343   951   981    1
  2344   952   973    1
  2345   952   974    1
  2346   952   982    1
  2347   953   975    1
  2348   953   978    1
  2349   953   983    1
  2350   953   985    1
  2351   953   986    1
  2352   954   976    1
  2353   954   977    1
  2354   954   979    1
  2355   954   984    1
  2356   954   987    1
  2357   954   988    1
  2358   955   981    1
  2359   955   986    1
  2360   955   987    1
  2361   955   990    1
  2362   955   991    1
  2363   956   981    1
  2364   956   990    1
  2365   956   991    1
  2366   957   982    1
  2367   957   991    1
  2368   957   992    1
  2369   993   994    1
  2370   993   996    1
  2371   993   998    1
  2372   993  1000    1
  2373   993  1005    1
  2374   993  1034    1
  2375   993  1035    1
  2376   993  1043    1
  2377   994  1001    1
  2378   994  1012    1
  2379   994  1013    1
  2380   994  1014    1
  2381   994  1017    1
  2382   994  1018    1
  2383   994  1019    1
  2384   995   996    1
  2385   995  1020    1
  2386   995  1021    1
  2387   995  1024    1
  2388   995  1025    1
  2389   995  1031    1
  2390   995  1033    1
  2391   995  1034    1
  2392   996  1003    1
  2393   996  1006    1
  2394   996  1007    1
  2395   996  1009    1
  2396   996  1010    1
  2397   996  1011    1
  2398   997   998    1
  2399   997  1005    1
  2400   997  1029    1
  2401   997  1030    1
  2402   997  1032    1
  2403   997  1038    1
  2404   997  1039    1
  2405   997  1041    1
  2406   998  1002    1
  2407   998  1003    1
  2408   998  1007    1
  2409   998  1008    1
  2410   998  1009    1
  2411   998  1012    1
  2412   999  1000    1
  2413   999  1005    1
  2414   999  1037    1
  2415   999  1038    1
  2416   999  1045    1
  2417   999  1046    1
  2418   999  1048    1
  2419   999  1049    1
  2420  1000  1003    1
  2421  1000  1004    1
  2422  1000  1010    1
  2423  1000  1011    1
  2424  1000  1015    1
  2425  1000  1017    1
  2426  1001  1005    1
  2427  1001  1041    1
  2428  1001  1044    1
  2429  1001  1049    1
  2430  1001  1050    1
  2431  1001  1053    1
  2432  1001  1054    1
  2433  1002  1022    1
  2434  1002  1023    1
  2435  1002  1026    1
  2436  1002  1027    1
  2437  1002  1032    1
  2438  1002  1035    1
  2439  1002  1036    1
  2440  1003  1005    1
  2441  1003  1028    1
  2442  1003  1029    1
  2443  1003  1037    1
  2444  1003  1038    1
  2445  1004  1040    1
  2446  1004  1042    1
  2447  1004  1043    1
  2448  1004  1047    1
  2449  1004  1048    1
  2450  1004  1051    1
  2451  1004  1052    1
  2452  1005  1012    1
  2453  1005  1016    1
  2454  1005  1017    1
  2455  1006  1020    1
  2456  1006  1021    1
  2457  1006  1028    1
  2458  1006  1031    1
  2459  1007  1021    1
  2460  1007  1022    1
  2461  1007  1028    1
  2462  1007  1029    1
  2463  1008  1022    1
  2464  1008  1023    1
  2465  1008  1029    1
  2466  1008  1030    1
  2467  1008  1032    1
  2468  1009  1021    1
  2469  1009  1022    1
  2470  1009  1025    1
  2471  1009  1026    1
  2472  1009  1034    1
  2473  1009  1035    1
  2474  1010  1028    1
  2475  1010  1031    1
  2476  1010  1037    1
  2477  1010  1040    1
  2478  1011  1031    1
  2479  1011  1033    1
  2480  1011  1034    1
  2481  1011  1040    1
  2482  1011  1042    1
  2483  1011  1043    1
  2484  1012  1032    1
  2485  1012  1035    1
  2486  1012  1036    1
  2487  1012  1041    1
  2488  1012  1044    1
  2489  1013  1034    1
  2490  1013  1035    1
  2491  1013  1043    1
  2492  1014  1035    1
  2493  1014  1036    1
  2494  1014  1044    1
  2495  1015  1037    1
  2496  1015  1040    1
  2497  1015  1045    1
  2498  1015  1047    1
  2499  1015  1048    1
  2500  1016  1038    1
  2501  1016  1039    1
  2502  1016  1041    1
  2503  1016  1046    1
  2504  1016  1049    1
  2505  1016  1050    1
  2506  1017  1043    1
  2507  1017  1048    1
  2508  1017  1049    1
  2509  1017  1052    1
  2510  1017  1053    1
  2511  1018  1043    1
  2512  1018  1052    1
  2513  1018  1053    1
  2514  1019  1044    1
  2515  1019  1053    1
  2516  1019  1054    1
  2517  1055  1056    1
  2518  1055  1058    1
  2519  1055  1060    1
  2520  1055  1062    1
  2521  1055  1067    1
  2522  1055  1096    1
  2523  1055  1097    1
  2524  1055  1105    1
  2525  1056  1063    1
  2526  1056  1074    1
  2527  1056  1075    1
  2528  1056  1076    1
  2529  1056  1079    1
  2530  1056  1080    1
  2531  1056  1081    1
  2532  1057  1058    1
  2533  1057  1082    1
  2534  1057  1083    1
  2535  1057  1086    1
  2536  1057  1087    1
  2537  1057  1093    1
  2538  1057  1095    1
  2539  1057  1096    1
  2540  1058  1065    1
  2541  1058  1068    1
  2542  1058  1069    1
  2543  1058  1071    1
  2544  1058  1072    1
  2545  1058  1073    1
  2546  1059  1060    1
  2547  1059  1067    1
  2548  1059  1091    1
  2549  1059  1092    1
  2550  1059  1094    1
  2551  1059  1100    1
  2552  1059  1101    1
  2553  1059  1103    1
  2554  1060  1064    1
  2555  1060  1065    1
  2556  1060  1069    1
  2557  1060  1070    1
  2558  1060  1071    1
  2559  1060  1074    1
  2560  1061  1062    1
  2561  1061  1067    1
  2562  1061  1099    1
  2563  1061  1100    1
  2564  1061  1107    1
  2565  1061  1108    1
  2566  1061  1110    1
  2567  1061  1111    1
  2568  1062  1065    1
  2569  1062  1066    1
  2570  1062  1072    1
  2571  1062  1073    1
  2572  1062  1077    1
  2573  1062  1079    1
  2574  1063  1067    1
  2575  1063  1103    1
  2576  1063  1106    1
  2577  1063  1111    1
  2578  1063  1112    1
  2579  1063  1115    1
  2580  1063  1116    1
  2581  1064  1084    1
  2582  1064  1085    1
  2583  1064  1088    1
  2584  1064  1089    1
  2585  1064  1094    1
  2586  1064  1097    1
  2587  1064  1098    1
  2588  1065  1067    1
  2589  1065  1090    1
  2590  1065  1091    1
  2591  1065  1099    1
  2592  1065  1100    1
  2593  1066  1102    1
  2594  1066  1104    1
  2595  1066  1105    1
  2596  1066  1109    1
  2597  1066  1110    1
  2598  1066  1113    1
  2599  1066  1114    1
  2600  1067  1074    1
  2601  1067  1078    1
  2602  1067  1079    1
  2603  1068  1082    1
  2604  1068  1083    1
  2605  1068  1090    1
  2606  1068  1093    1
  2607  1069  1083    1
  2608  1069  1084    1
  2609  1069  1090    1
  2610  1069  1091    1
  2611  1070  1084    1
  2612  1070  1085    1
  2613  1070  1091    1
  2614  1070  1092    1
  2615  1070  1094    1
  2616  1071  1083    1
  2617  1071  1084    1
  2618  1071  1087    1
  2619  1071  1088    1
  2620  1071  1096    1
  2621  1071  1097    1
  2622  1072  1090    1
  2623  1072  1093    1
  2624  1072  1099    1
  2625  1072  1102    1
  2626  1073  1093    1
  2627  1073  1095    1
  2628  1073  1096    1
  2629  1073  1102    1
  2630  1073  1104    1
  2631  1073  1105    1
  2632  1074  1094    1
  2633  1074  1097    1
  2634  1074  1098    1
  2635  1074  1103    1
  2636  1074  1106    1
  2637  1075  1096    1
  2638  1075  1097    1
  2639  1075  1105    1
  2640  1076  1097    1
  2641  1076  1098    1
  2642  1076  1106    1
  2643  1077  1099    1
  2644  1077  1102    1
  2645  1077  1107    1
  2646  1077  1109    1
  2647  1077  1110    1
  2648  1078  1100    1
  2649  1078  1101    1
  2650  1078  1103    1
  2651  1078  1108    1
  2652  1078  1111    1
  2653  1078  1112    1
  2654  1079  1105    1
  2655  1079  1110    1
  2656  1079  1111    1
  2657  1079  1114    1
  2658  1079  1115    1
  2659  1080  1105    1
  2660  1080  1114    1
  2661  1080  1115    1
  2662  1081  1106    1
  2663  1081  1115    1
  2664  1081  1116    1
  2665  1117  1118    1
  2666  1117  1120    1
  2667  1117  1122    1
  2668  1117  1124    1
  2669  1117  1129    1
  2670  1117  1158    1
  2671  1117  1159    1
  2672  1117  1167    1
  2673  1118  1125    1
  2674  1118  1136    1
  2675  1118  1137    1
  2676  1118  1138    1
  2677  1118  1141    1
  2678  1118  1142    1
  2679  1118  1143    1
  2680  1119  1120    1
  2681  1119  1144    1
  2682  1119  1145    1
  2683  1119  1148    1
  2684  1119  1149    1
  2685  1119  1155    1
  2686  1119  1157    1
  2687  1119  1158    1
  2688  1120  1127    1
  2689  1120  1130    1
  2690  1120  1131    1
  2691  1120  1133    1
  2692  1120  1134    1
  2693  1120  1135    1
  2694  1121  1122    1
  2695  1121  1129    1
  2696  1121  1153    1
  2697  1121  1154    1
  2698  1121  1156    1
  2699  1121  1162    1
  2700  1121  1163    1
  2701  1121  1165    1
  2702  1122  1126    1
  2703  1122  1127    1
  2704  1122  1131    1
  2705  1122  1132    1
  2706  1122  1133    1
  2707  1122  1136    1
  2708  1123  1124    1
  2709  1123  1129    1
  2710  1123  1161    1
  2711  1123  1162    1
  2712  1123  1169    1
  2713  1123  1170    1
  2714  1123  1172    1
  2715  1123  1173    1
  2716  1124  1127    1
  2717  1124  1128    1
  2718  1124  1134    1
  2719  1124  1135    1
  2720  1124  1139    1
  2721  1124  1141    1
  2722  1125  1129    1
  2723  1125  1165    1
  2724  1125  1168    1
  2725  1125  1173    1
  2726  1125  1174    1
  2727  1125  1177    1
  2728  1125  1178    1
  2729  1126  1146    1
  2730  1126  1147    1
  2731  1126  1150    1
  2732  1126  1151    1
  2733  1126  1156    1
  2734  1126  1159    1
  2735  1126  1160    1
  2736  1127  1129    1
  2737  1127  1152    1
  2738  1127  1153    1
  2739  1127  1161    1
  2740  1127  1162    1
  2741  1128  1164    1
  2742  1128  1166    1
  2743  1128  1167    1
  2744  1128  1171    1
  2745  1128  1172    1
  2746  1128  1175    1
  2747  1128  1176    1
  2748  1129  1136    1
  2749  1129  1140    1
  2750  1129  1141    1
  2751  1130  1144    1
  2752  1130  1145    1
  2753  1130  1152    1
  2754  1130  1155    1
  2755  1131  1145    1
  2756  1131  1146    1
  2757  1131  1152    1
  2758  1131  1153    1
  2759  1132  1146    1
  2760  1132  1147    1
  2761  1132  1153    1
  2762  1132  1154    1
  2763  1132  1156    1
  2764  1133  1145    1
  2765  1133  1146    1
  2766  1133  1149    1
  2767  1133  1150    1
  2768  1133  1158    1
  2769  1133  1159    1
  2770  1134  1152    1
  2771  1134  1155    1
  2772  1134  1161    1
  2773  1134  1164    1
  2774  1135  1155    1
  2775  1135  1157    1
  2776  1135  1158    1
  2777  1135  1164    1
  2778  1135  1166    1
  2779  1135  1167    1
  2780  1136  1156    1
  2781  1136  1159    1
  2782  1136  1160    1
  2783  1136  1165    1
  2784  1136  1168    1
  2785  1137  1158    1
  2786  1137  1159    1
  2787  1137  1167    1
  2788  1138  1159    1
  2789  1138  1160    1
  2790  1138  1168    1
  2791  1139  1161    1
  2792  1139  1164    1
  2793  1139  1169    1
  2794  1139  1171    1
  2795  1139  1172    1
  2796  1140  1162    1
  2797  1140  1163    1
  2798  1140  1165    1
  2799  1140  1170    1
  2800  1140  1173    1
  2801  1140  1174    1
  2802  1141  1167    1
  2803  1141  1172    1
  2804  1141  1173    1
  2805  1141  1176    1
  2806  1141  1177    1
  2807  1142  1167    1
  2808  1142  1176    1
  2809  1142  1177    1
  2810  1143  1168    1
  2811  1143  1177    1
  2812  1143  1178    1
  2813  1179  1180    1
  2814  1179  1182    1
  2815  1179  1184    1
  2816  1179  1186    1
  2817  1179  1191    1
  2818  1179  1220    1
  2819  1179  1221    1
  2820  1179  1229    1
  2821  1180  1187    1
  2822  1180  1198    1
  2823  1180  1199    1
  2824  1180  1200    1
  2825  1180  1203    1
  2826  1180  1204    1
  2827  1180  1205    1
  2828  1181  1182    1
  2829  1181  1206    1
  2830  1181  1207    1
  2831  1181  1210    1
  2832  1181  1211    1
  2833  1181  1217    1
  2834  1181  1219    1
  2835  1181  1220    1
  2836  1182  1189    1
  2837  1182  1192    1
  2838  1182  1193    1
  2839  1182  1195    1
  2840  1182  1196    1
  2841  1182  1197    1
  2842  1183  1184    1
  2843  1183  1191    1
  2844  1183  1215    1
  2845  1183  1216    1
  2846  1183  1218    1
  2847  1183  1224    1
  2848  1183  1225    1
  2849  1183  1227    1
  2850  1184  1188    1
  2851  1184  1189    1
  2852  1184  1193    1
  2853  1184  1194    1
  2854  1184  1195    1
  2855  1184  1198    1
  2856  1185  1186    1
  2857  1185  1191    1
  2858  1185  1223    1
  2859  1185  1224    1
  2860  1185  1231    1
  2861  1185  1232    1
  2862  1185  1234    1
  2863  1185  1235    1
  2864  1186  1189    1
  2865  1186  1190    1
  2866  1186  1196    1
  2867  1186  1197    1
  2868  1186  1201    1
  2869  1186  1203    1
  2870  1187  1191    1
  2871  1187  1227    1
  2872  1187  1230    1
  2873  1187  1235    1
  2874  1187  1236    1
  2875  1187  1239    1
  2876  1187  1240    1
  2877  1188  1208    1
  2878  1188  1209    1
  2879  1188  1212    1
  2880  1188  1213    1
  2881  1188  1218    1
  2882  1188  1221    1
  2883  1188  1222    1
  2884  1189  1191    1
  2885  1189  1214    1
  2886  1189  1215    1
  2887  1189  1223    1
  2888  1189  1224    1
  2889  1190  1226    1
  2890  1190  1228    1
  2891  1190  1229    1
  2892  1190  1233    1
  2893  1190  1234    1
  2894  1190  1237    1
  2895  1190  1238    1
  2896  1191  1198    1
  2897  1191  1202    1
  2898  1191  1203    1
  2899  1192  1206    1
  2900  1192  1207    1
  2901  1192  1214    1
  2902  1192  1217    1
  2903  1193  1207    1
  2904  1193  1208    1
  2905  1193  1214    1
  2906  1193  1215    1
  2907  1194  1208    1
  2908  1194  1209    1
  2909  1194  1215    1
  2910  1194  1216    1
  2911  1194  1218    1
  2912  1195  1207    1
  2913  1195  1208    1
  2914  1195  1211    1
  2915  1195  1212    1
  2916  1195  1220    1
  2917  1195  1221    1
  2918  1196  1214    1
  2919  1196  1217    1
  2920  1196  1223    1
  2921  1196  1226    1
  2922  1197  1217    1
  2923  1197  1219    1
  2924  1197  1220    1
  2925  1197  1226    1
  2926  1197  1228    1
  2927  1197  1229    1
  2928  1198  1218    1
  2929  1198  1221    1
  2930  1198  1222    1
  2931  1198  1227    1
  2932  1198  1230    1
  2933  1199  1220    1
  2934  1199  1221    1
  2935  1199  1229    1
  2936  1200  1221    1
  2937  1200  1222    1
  2938  1200  1230    1
  2939  1201  1223    1
  2940  1201  1226    1
  2941  1201  1231    1
  2942  1201  1233    1
  2943  1201  1234    1
  2944  1202  1224    1
  2945  1202  1225    1
  2946  1202  1227    1
  2947  1202  1232    1
  2948  1202  1235    1
  2949  1202  1236    1
  2950  1203  1229    1
  2951  1203  1234    1
  2952  1203  1235    1
  2953  1203  1238    1
  2954  1203  1239    1
  2955  1204  1229    1
  2956  1204  1238    1
  2957  1204  1239    1
  2958  1205  1230    1
  2959  1205  1239    1
  2960  1205  1240    1
  2961  1241  1242    1
  2962  1241  1244    1
  2963  1241  1246    1
  2964  1241  1248    1
  2965  1241  1253    1
  2966  1241  1282    1
  2967  1241  1283    1
  2968  1241  1291    1
  2969  1242  1249    1
  2970  1242  1260    1
  2971  1242  1261    1
  2972  1242  1262    1
  2973  1242  1265    1
  2974  1242  1266    1
  2975  1242  1267    1
  2976  1243  1244    1
  2977  1243  1268    1
  2978  1243  1269    1
  2979  1243  1272    1
  2980  1243  1273    1
  2981  1243  1279    1
  2982  1243  1281    1
  2983  1243  1282    1
  2984  1244  1251    1
  2985  1244  1254    1
  2986  1244  1255    1
  2987  1244  1257    1
  2988  1244  1258    1
  2989  1244  1259    1
  2990  1245  1246    1
  2991  1245  1253    1
  2992  1245  1277    1
  2993  1245  1278    1
  2994  1245  1280    1
  2995  1245  1286    1
  2996  1245  1287    1
  2997  1245  1289    1
  2998  1246  1250    1
  2999  1246  1251    1
  3000  1246  1255    1
  3001  1246  1256    1
  3002  1246  1257    1
  3003  1246  1260    1
  3004  1247  1248    1
  3005  1247  1253    1
  3006  1247  1285    1
  3007  1247  1286    1
  3008  1247  1293    1
  3009  1247  1294    1
  3010  1247  1296    1
  3011  1247  1297    1
  3012  1248  1251    1
  3013  1248  1252    1
  3014  1248  1258    1
  3015  1248  1259    1
  3016  1248  1263    1
  3017  1248  1265    1
  3018  1249  1253    1
  3019  1249  1289    1
  3020  1249  1292    1
  3021  1249  1297    1
  3022  1249  1298    1
  3023  1249  1301    1
  3024  1249  1302    1
  3025  1250  1270    1
  3026  1250  1271    1
  3027  1250  1274    1
  3028  1250  1275    1
  3029  1250  1280    1
  3030  1250  1283    1
  3031  1250  1284    1
  3032  1251  1253    1
  3033  1251  1276    1
  3034  1251  1277    1
  3035  1251  1285    1
  3036  1251  1286    1
  3037  1252  1288    1
  3038  1252  1290    1
  3039  1252  1291    1
  3040  1252  1295    1
  3041  1252  1296    1
  3042  1252  1299    1
  3043  1252  1300    1
  3044  1253  1260    1
  3045  1253  1264    1
  3046  1253  1265    1
  3047  1254  1268    1
  3048  1254  1269    1
  3049  1254  1276    1
  3050  1254  1279    1
  3051  1255  1269    1
  3052  1255  1270    1
  3053  1255  1276    1
  3054  1255  1277    1
  3055  1256  1270    1
  3056  1256  1271    1
  3057  1256  1277    1
  3058  1256  1278    1
  3059  1256  1280    1
  3060  1257  1269    1
  3061  1257  1270    1
  3062  1257  1273    1
  3063  1257  1274    1
  3064  1257  1282    1
  3065  1257  1283    1
  3066  1258  1276    1
  3067  1258  1279    1
  3068  1258  1285    1
  3069  1258  1288    1
  3070  1259  1279    1
  3071  1259  1281    1
  3072  1259  1282    1
  3073  1259  1288    1
  3074  1259  1290    1
  3075  1259  1291    1
  3076  1260  1280    1
  3077  1260  1283    1
  3078  1260  1284    1
  3079  1260  1289    1
  3080  1260  1292    1
  3081  1261  1282    1
  3082  1261  1283    1
  3083  1261  1291    1
  3084  1262  1283    1
  3085  1262  1284    1
  3086  1262  1292    1
  3087  1263  1285    1
  3088  1263  1288    1
  3089  1263  1293    1
  3090  1263  1295    1
  3091  1263  1296    1
  3092  1264  1286    1
  3093  1264  1287    1
  3094  1264  1289    1
  3095  1264  1294    1
  3096  1264  1297    1
  3097  1264  1298    1
  3098  1265  1291    1
  3099  1265  1296    1
  3100  1265  1297    1
  3101  1265  1300    1
  3102  1265  1301    1
  3103  1266  1291    1
  3104  1266  1300    1
  3105  1266  1301    1
  3106  1267  1292    1
  3107  1267  1301    1
  3108  1267  1302    1
  3109  1303  1304    1
  3110  1303  1306    1
  3111  1303  1308    1
  3112  1303  1310    1
  3113  1303  1315    1
  3114  1303  1344    1
  3115  1303  1345    1
  3116  1303  1353    1
  3117  1304  1311    1
  3118  1304  1322    1
  3119  1304  1323    1
  3120  1304  1324    1
  3121  1304  1327    1
  3122  1304  1328    1
  3123  1304  1329    1
  3124  1305  1306    1
  3125  1305  1330    1
  3126  1305  1331    1
  3127  1305  1334    1
  3128  1305  1335    1
  3129  1305  1341    1
  3130  1305  1343    1
  3131  1305  1344    1
  3132  1306  1313    1
  3133  1306  1316    1
  3134  1306  1317    1
  3135  1306  1319    1
  3136  1306  1320    1
  3137  1306  1321    1
  3138  1307  1308    1
  3139  1307  1315    1
  3140  1307  1339    1
  3141  1307  1340    1
  3142  1307  1342    1
  3143  1307  1348    1
  3144  1307  1349    1
  3145  1307  1351    1
  3146  1308  1312    1
  3147  1308  1313    1
  3148  1308  1317    1
  3149  1308  1318    1
  3150  1308  1319    1
  3151  1308  1322    1
  3152  1309  1310    1
  3153  1309  1315    1
  3154  1309  1347    1
  3155  1309  1348    1
  3156  1309  1355    1
  3157  1309  1356    1
  3158  1309  1358    1
  3159  1309  1359    1
  3160  1310  1313    1
  3161  1310  1314    1
  3162  1310  1320    1
  3163  1310  1321    1
  3164  1310  1325    1
  3165  1310  1327    1
  3166  1311  1315    1
  3167  1311  1351    1
  3168  1311  1354    1
  3169  1311  1359    1
  3170  1311  1360    1
  3171  1311  1363    1
  3172  1311  1364    1
  3173  1312  1332    1
  3174  1312  1333    1
  3175  1312  1336    1
  3176  1312  1337    1
  3177  1312  1342    1
  3178  1312  1345    1
  3179  1312  1346    1
  3180  1313  1315    1
  3181  1313  1338    1
  3182  1313  1339    1
  3183  1313  1347    1
  3184  1313  1348    1
  3185  1314  1350    1
  3186  1314  1352    1
  3187  1314  1353    1
  3188  1314  1357    1
  3189  1314  1358    1
  3190  1314  1361    1
  3191  1314  1362    1
  3192  1315  1322    1
  3193  1315  1326    1
  3194  1315  1327    1
  3195  1316  1330    1
  3196  1316  1331    1
  3197  1316  1338    1
  3198  1316  1341    1
  3199  1317  1331    1
  3200  1317  1332    1
  3201  1317  1338    1
  3202  1317  1339    1
  3203  1318  1332    1
  3204  1318  1333    1
  3205  1318  1339    1
  3206  1318  1340    1
  3207  1318  1342    1
  3208  1319  1331    1
  3209  1319  1332    1
  3210  1319  1335    1
  3211  1319  1336    1
  3212  1319  1344    1
  3213  1319  1345    1
  3214  1320  1338    1
  3215  1320  1341    1
  3216  1320  1347    1
  3217  1320  1350    1
  3218  1321  1341    1
  3219  1321  1343    1
  3220  1321  1344    1
  3221  1321  1350    1
  3222  1321  1352    1
  3223  1321  1353    1
  3224  1322  1342    1
  3225  1322  1345    1
  3226  1322  1346    1
  3227  1322  1351    1
  3228  1322  1354    1
  3229  1323  1344    1
  3230  1323  1345    1
  3231  1323  1353    1
  3232  1324  1345    1
  3233  1324  1346    1
  3234  1324  1354    1
  3235  1325  1347    1
  3236  1325  1350    1
  3237  1325  1355    1
  3238  1325  1357    1
  3239  1325  1358    1
  3240  1326  1348    1
  3241  1326  1349    1
  3242  1326  1351    1
  3243  1326  1356    1
  3244  1326  1359    1
  3245  1326  1360    1
  3246  1327  1353    1
  3247  1327  1358    1
  3248  1327  1359    1
  3249  1327  1362    1
  3250  1327  1363    1
  3251  1328  1353    1
  3252  1328  1362    1
  3253  1328  1363    1
  3254  1329  1354    1
  3255  1329  1363    1
  3256  1329  1364    1
  3257  1365  1366    1
  3258  1365  1368    1
  3259  1365  1370    1
  3260  1365  1372    1
  3261  1365  1377    1
  3262  1365  1406    1
  3263  1365  1407    1
  3264  1365  1415    1
  3265  1366  1373    1
  3266  1366  1384    1
  3267  1366  1385    1
  3268  1366  1386    1
  3269  1366  1389    1
  3270  1366  1390    1
  3271  1366  1391    1
  3272  1367  1368    1
  3273  1367  1392    1
  3274  1367  1393    1
  3275  1367  1396    1
  3276  1367  1397    1
  3277  1367  1403    1
  3278  1367  1405    1
  3279  1367  1406    1
  3280  1368  1375    1
  3281  1368  1378    1
  3282  1368  1379    1
  3283  1368  1381    1
  3284  1368  1382    1
  3285  1368  1383    1
  3286  1369  1370    1
  3287  1369  1377    1
  3288  1369  1401    1
  3289  1369  1402    1
  3290  1369  1404    1
  3291  1369  1410    1
  3292  1369  1411    1
  3293  1369  1413    1
  3294  1370  1374    1
  3295  1370  1375    1
  3296  1370  1379    1
  3297  1370  1380    1
  3298  1370  1381    1
  3299  1370  1384    1
  3300  1371  1372    1
  3301  1371  1377    1
  3302  1371  1409    1
  3303  1371  1410    1
  3304  1371  1417    1
  3305  1371  1418    1
  3306  1371  1420    1
  3307  1371  1421    1
  3308  1372  1375    1
  3309  1372  1376    1
  3310  1372  1382    1
  3311  1372  1383    1
  3312  1372  1387    1
  3313  1372  1389    1
  3314  1373  1377    1
  3315  1373  1413    1
  3316  1373  1416    1
  3317  1373  1421    1
  3318  1373  1422    1
  3319  1373  1425    1
  3320  1373  1426    1
  3321  1374  1394    1
  3322  1374  1395    1
  3323  1374  1398    1
  3324  1374  1399    1
  3325  1374  1404    1
  3326  1374  1407    1
  3327  1374  1408    1
  3328  1375  1377    1
  3329  1375  1400    1
  3330  1375  1401    1
  3331  1375  1409    1
  3332  1375  1410    1
  3333  1376  1412    1
  3334  1376  1414    1
  3335  1376  1415    1
  3336  1376  1419    1
  3337  1376  1420    1
  3338  1376  1423    1
  3339  1376  1424    1
  3340  1377  1384    1
  3341  1377  1388    1
  3342  1377  1389    1
  3343  1378  1392    1
  3344  1378  1393    1
  3345  1378  1400    1
  3346  1378  1403    1
  3347  1379  1393    1
  3348  1379  1394    1
  3349  1379  1400    1
  3350  1379  1401    1
  3351  1380  1394    1
  3352  1380  1395    1
  3353  1380  1401    1
  3354  1380  1402    1
  3355  1380  1404    1
  3356  1381  1393    1
  3357  1381  1394    1
  3358  1381  1397    1
  3359  1381  1398    1
  3360  1381  1406    1
  3361  1381  1407    1
  3362  1382  1400    1
  3363  1382  1403    1
  3364  1382  1409    1
  3365  1382  1412    1
  3366  1383  1403    1
  3367  1383  1405    1
  3368  1383  1406    1
  3369  1383  1412    1
  3370  1383  1414    1
  3371  1383  1415    1
  3372  1384  1404    1
  3373  1384  1407    1
  3374  1384  1408    1
  3375  1384  1413    1
  3376  1384  1416    1
  3377  1385  1406    1
  3378  1385  1407    1
  3379  1385  1415    1
  3380  1386  1407    1
  3381  1386  1408    1
  3382  1386  1416    1
  3383  1387  1409    1
  3384  1387  1412    1
  3385  1387  1417    1
  3386  1387  1419    1
  3387  1387  1420    1
  3388  1388  1410    1
  3389  1388  1411    1
  3390  1388  1413    1
  3391  1388  1418    1
  3392  1388  1421    1
  3393  1388  1422    1
  3394  1389  1415    1
  3395  1389  1420    1
  3396  1389  1421    1
  3397  1389  1424    1
  3398  1389  1425    1
  3399  1390  1415    1
  3400  1390  1424    1
  3401  1390  1425    1
  3402  1391  1416    1
  3403  1391  1425    1
  3404  1391  1426    1
  3405  1427  1428    1
  3406  1427  1430    1
  3407  1427  1432    1
  3408  1427  1434    1
  3409  1427  1439    1
  3410  1427  1468    1
  3411  1427  1469    1
  3412  1427  1477    1
  3413  1428  1435    1
  3414  1428  1446    1
  3415  1428  1447    1
  3416  1428  1448    1
  3417  1428  1451    1
  3418  1428  1452    1
  3419  1428  1453    1
  3420  1429  1430    1
  3421  1429  1454    1
  3422  1429  1455    1
  3423  1429  1458    1
  3424  1429  1459    1
  3425  1429  1465    1
  3426  1429  1467    1
  3427  1429  1468    1
  3428  1430  1437    1
  3429  1430  1440    1
  3430  1430  1441    1
  3431  1430  1443    1
  3432  1430  1444    1
  3433  1430  1445    1
  3434  1431  1432    1
  3435  1431  1439    1
  3436  1431  1463    1
  3437  1431  1464    1
  3438  1431  1466    1
  3439  1431  1472    1
  3440  1431  1473    1
  3441  1431  1475    1
  3442  1432  1436    1
  3443  1432  1437    1
  3444  1432  1441    1
  3445  1432  1442    1
  3446  1432  1443    1
  3447  1432  1446    1
  3448  1433  1434    1
  3449  1433  1439    1
  3450  1433  1471    1
  3451  1433  1472    1
  3452  1433  1479    1
  3453  1433  1480    1
  3454  1433  1482    1
  3455  1433  1483    1
  3456  1434  1437    1
  3457  1434  1438    1
  3458  1434  1444    1
  3459  1434  1445    1
  3460  1434  1449    1
  3461  1434  1451    1
  3462  1435  1439    1
  3463  1435  1475    1
  3464  1435  1478    1
  3465  1435  1483    1
  3466  1435  1484    1
  3467  1435  1487    1
  3468  1435  1488    1
  3469  1436  1456    1
  3470  1436  1457    1
  3471  1436  1460    1
  3472  1436  1461    1
  3473  1436  1466    1
  3474  1436  1469    1
  3475  1436  1470    1
  3476  1437  1439    1
  3477  1437  1462    1
  3478  1437  1463    1
  3479  1437  1471    1
  3480  1437  1472    1
  3481  1438  1474    1
  3482  1438  1476    1
  3483  1438  1477    1
  3484  1438  1481    1
  3485  1438  1482    1
  3486  1438  1485    1
  3487  1438  1486    1
  3488  1439  1446    1
  3489  1439  1450    1
  3490  1439  1451    1
  3491  1440  1454    1
  3492  1440  1455    1
  3493  1440  1462    1
  3494  1440  1465    1
  3495  1441  1455    1
  3496  1441  1456    1
  3497  1441  1462    1
  3498  1441  1463    1
  3499  1442  1456    1
  3500  1442  1457    1
  3501  1442  1463    1
  3502  1442  1464    1
  3503  1442  1466    1
  3504  1443  1455    1
  3505  1443  1456    1
  3506  1443  1459    1
  3507  1443  1460    1
  3508  1443  1468    1
  3509  1443  1469    1
  3510  1444  1462    1
  3511  1444  1465    1
  3512  1444  1471    1
  3513  1444  1474    1
  3514  1445  1465    1
  3515  1445  1467    1
  3516  1445  1468    1
  3517  1445  1474    1
  3518  1445  1476    1
  3519  1445  1477    1
  3520  1446  1466    1
  3521  1446  1469    1
  3522  1446  1470    1
  3523  1446  1475    1
  3524  1446  1478    1
  3525  1447  1468    1
  3526  1447  1469    1
  3527  1447  1477    1
  3528  1448  1469    1
  3529  1448  1470    1
  3530  1448  1478    1
  3531  1449  1471    1
  3532  1449  1474    1
  3533  1449  1479    1
  3534  1449  1481    1
  3535  1449  1482    1
  3536  1450  1472    1
  3537  1450  1473    1
  3538  1450  1475    1
  3539  1450  1480    1
  3540  1450  1483    1
  3541  1450  1484    1
  3542  1451  1477    1
  3543  1451  1482    1
  3544  1451  1483    1
  3545  1451  1486    1
  3546  1451  1487    1
  3547  1452  1477    1
  3548  1452  1486    1
  3549  1452  1487    1
  3550  1453  1478    1
  3551  1453  1487    1
  3552  1453  1488    1
@<TRIPOS>SUBSTRUCTURE
     1 RES1       1
     2 RES2      63
     3 RES3     125
     4 RES4     187
     5 RES5     249
     6 RES6     311
     7 RES7     373
     8 RES8     435
     9 RES9     497
    10 RES10     559
    11 RES11     621
    12 RES12     683
    13 RES13     745
    14 RES14     807
    15 RES15     869
    16 RES16     931
    17 RES17     993
    18 RES18    1055
    19 RES19    1117
    20 RES20    1179
    21 RES21    1241
    22 RES22    1303
    23 RES23    1365
    24 RES24    1427
@<TRIPOS>CRYSIN
    4.1230    4.1230    4.1230   90.0000   90.0000   90.0000   221     1
