@<TRIPOS>MOLECULE
ZINC02211856
   55    58     0     0     0
SMALL
USER_CHARGES
2-diethylamino-1-[2-(2-naphthyl)-4-quinolyl]-ethanol
@<TRIPOS>ATOM
      1 C1          7.0053   11.3096   -1.5429 C.3       1 <0>        -0.1912
      2 C2          5.8645   11.9318   -0.7352 C.3       1 <0>        -0.0175
      3 C3          4.5056   12.0745   -2.7341 C.3       1 <0>        -0.0127
      4 C4          4.3757   13.5990   -2.7241 C.3       1 <0>        -0.1881
      5 C5          4.3482   10.1304   -1.2995 C.3       1 <0>        -0.0450
      6 C6          4.1837    9.6933    0.1575 C.3       1 <0>         0.1329
      7 H1          5.0504   10.0170    0.7339 H         1 <0>         0.1364
      8 C7          4.0699    8.1920    0.2218 C.ar      1 <0>        -0.0806
      9 C8          2.8501    7.5838    0.2474 C.ar      1 <0>        -0.1376
     10 C9          2.7687    6.1837    0.3069 C.ar      1 <0>         0.2138
     11 N1          3.8520    5.4313    0.3445 N.ar      1 <0>        -0.4543
     12 C10         5.0726    5.9723    0.3163 C.ar      1 <0>         0.1409
     13 C11         5.2214    7.3809    0.2565 C.ar      1 <0>        -0.0925
     14 C12         6.5081    7.9414    0.2334 C.ar      1 <0>        -0.1253
     15 C13         7.5987    7.1266    0.2678 C.ar      1 <0>        -0.0928
     16 C14         7.4552    5.7418    0.3266 C.ar      1 <0>        -0.0978
     17 C15         6.2234    5.1641    0.3509 C.ar      1 <0>        -0.0796
     18 C16         1.4356    5.5361    0.3342 C.ar      1 <0>        -0.0747
     19 C17         0.2757    6.3279    0.3008 C.ar      1 <0>        -0.1027
     20 C18        -0.9570    5.7591    0.3247 C.ar      1 <0>        -0.1019
     21 C19        -1.0844    4.3594    0.3836 C.ar      1 <0>        -0.0384
     22 C20        -2.3486    3.7469    0.4088 C.ar      1 <0>        -0.1129
     23 C21        -2.4399    2.3897    0.4607 C.ar      1 <0>        -0.1015
     24 C22        -1.2962    1.5943    0.5002 C.ar      1 <0>        -0.1131
     25 C23        -0.0548    2.1515    0.4773 C.ar      1 <0>        -0.0993
     26 C24         0.0793    3.5502    0.4183 C.ar      1 <0>        -0.0612
     27 C25         1.3442    4.1576    0.3927 C.ar      1 <0>        -0.0415
     28 O1          3.0020   10.2844    0.7017 O.3       1 <0>        -0.5417
     29 H2          7.9498   11.4753   -1.0248 H         1 <0>         0.1092
     30 H3          6.8327   10.2387   -1.6501 H         1 <0>         0.0790
     31 H4          7.0461   11.7715   -2.5294 H         1 <0>         0.0845
     32 H5          5.9773   13.0159   -0.7228 H         1 <0>         0.1348
     33 H6          5.8930   11.5518    0.2860 H         1 <0>         0.1276
     34 H7          5.4113   11.7906   -3.2701 H         1 <0>         0.1337
     35 H8          3.6382   11.6392   -3.2303 H         1 <0>         0.1284
     36 H9          3.4843   13.8840   -2.1653 H         1 <0>         0.0811
     37 H10         5.2557   14.0355   -2.2517 H         1 <0>         0.0804
     38 H11         4.2946   13.9635   -3.7481 H         1 <0>         0.1071
     39 H12         5.1985    9.6108   -1.7409 H         1 <0>         0.1463
     40 H13         3.4437    9.8857   -1.8565 H         1 <0>         0.1380
     41 H14         1.9484    8.1778    0.2217 H         1 <0>         0.1422
     42 H15         6.6326    9.0133    0.1875 H         1 <0>         0.1210
     43 H16         8.5880    7.5594    0.2493 H         1 <0>         0.1340
     44 H17         8.3358    5.1169    0.3530 H         1 <0>         0.1391
     45 H18         6.1296    4.0892    0.3969 H         1 <0>         0.1438
     46 H19         0.3656    7.4033    0.2559 H         1 <0>         0.1228
     47 H20        -1.8395    6.3811    0.2981 H         1 <0>         0.1335
     48 H21        -3.2441    4.3501    0.3825 H         1 <0>         0.1311
     49 H22        -3.4134    1.9224    0.4759 H         1 <0>         0.1286
     50 H23        -1.3965    0.5199    0.5452 H         1 <0>         0.1289
     51 H24         0.8229    1.5227    0.5047 H         1 <0>         0.1314
     52 H25         2.2389    3.5533    0.4189 H         1 <0>         0.1420
     53 H26         2.1900   10.0396    0.2370 H         1 <0>         0.3897
     54 N2          4.5580   11.5930   -1.3377 N.4       1 <0>        -0.3919
     55 H27         3.8135   12.0509   -0.7988 H         1 <0>         0.4336
@<TRIPOS>BOND
     1    1    2 1
     2    1   29 1
     3    1   30 1
     4    1   31 1
     5    2   32 1
     6    2   33 1
     7    2   54 1
     8    3    4 1
     9    3   34 1
    10    3   35 1
    11    3   54 1
    12    4   36 1
    13    4   37 1
    14    4   38 1
    15    5    6 1
    16    5   39 1
    17    5   40 1
    18    5   54 1
    19    6    7 1
    20    6    8 1
    21    6   28 1
    22    8   13 ar
    23    8    9 ar
    24    9   10 ar
    25    9   41 1
    26   10   11 ar
    27   10   18 1
    28   11   12 ar
    29   12   17 ar
    30   12   13 ar
    31   13   14 ar
    32   14   15 ar
    33   14   42 1
    34   15   16 ar
    35   15   43 1
    36   16   17 ar
    37   16   44 1
    38   17   45 1
    39   18   27 ar
    40   18   19 ar
    41   19   20 ar
    42   19   46 1
    43   20   21 ar
    44   20   47 1
    45   21   26 ar
    46   21   22 ar
    47   22   23 ar
    48   22   48 1
    49   23   24 ar
    50   23   49 1
    51   24   25 ar
    52   24   50 1
    53   25   26 ar
    54   25   51 1
    55   26   27 ar
    56   27   52 1
    57   28   53 1
    58   54   55 1
@<TRIPOS>MOLECULE
ZINC05342764
   50    53     0     0     0
SMALL
USER_CHARGES
(4-methoxyphenyl)BLAHone
@<TRIPOS>ATOM
      1 C1          0.4668   -3.2719    5.3511 C.3       1 <0>         0.0217
      2 O1          0.8123   -1.8922    5.4900 O.3       1 <0>        -0.3080
      3 C2          0.4535   -1.0613    4.4763 C.ar      1 <0>         0.1588
      4 C3          0.7574    0.2906    4.5454 C.ar      1 <0>        -0.1472
      5 C4          0.3912    1.1333    3.5138 C.ar      1 <0>        -0.0567
      6 C5         -0.2780    0.6305    2.4133 C.ar      1 <0>        -0.1656
      7 C6         -0.5871   -0.7154    2.3447 C.ar      1 <0>        -0.0686
      8 C7         -0.2177   -1.5633    3.3708 C.ar      1 <0>        -0.2047
      9 C8         -0.6767    1.5521    1.2897 C.3       1 <0>        -0.0310
     10 H1         -0.3346    2.5609    1.5207 H         1 <0>         0.1089
     11 C9         -2.1967    1.5584    1.1721 C.3       1 <0>        -0.1249
     12 C10        -2.5650    2.5229    0.0509 C.2       1 <0>         0.3562
     13 C11        -3.7398    4.5393   -0.6224 C.3       1 <0>         0.0737
     14 H2         -2.8596    5.0971   -0.9421 H         1 <0>         0.1642
     15 C12        -4.7711    5.4348    0.0974 C.3       1 <0>        -0.1400
     16 C13        -5.8909    4.5366    0.6296 C.3       1 <0>        -0.1405
     17 C14        -6.5819    3.8059   -0.5209 C.3       1 <0>        -0.1285
     18 C15        -5.5590    2.9782   -1.3084 C.3       1 <0>        -0.1360
     19 C16        -4.4684    3.9122   -1.8168 C.3       1 <0>         0.0498
     20 H3         -4.9712    4.7176   -2.3522 H         1 <0>         0.1674
     21 C17        -2.4343    2.6542   -2.4428 C.2       1 <0>         0.3230
     22 C18        -1.9138    2.2797   -1.2380 C.3       1 <0>        -0.1455
     23 C19        -0.6889    1.5573   -1.2333 C.2       1 <0>         0.3903
     24 O2         -0.1645    1.3114   -2.3005 O.2       1 <0>        -0.3863
     25 C20        -0.0127    1.0858    0.0080 C.3       1 <0>        -0.1487
     26 H4         -0.6153   -3.3683    5.2624 H         1 <0>         0.0610
     27 H5          0.9422   -3.6773    4.4579 H         1 <0>         0.0622
     28 H6          0.8101   -3.8223    6.2271 H         1 <0>         0.1116
     29 H7          1.2795    0.6839    5.4051 H         1 <0>         0.1418
     30 H8          0.6276    2.1858    3.5671 H         1 <0>         0.1339
     31 H9         -1.1141   -1.1049    1.4862 H         1 <0>         0.1263
     32 H10        -0.4557   -2.6153    3.3149 H         1 <0>         0.1383
     33 H11        -2.5969    1.8554    2.0391 H         1 <0>         0.1226
     34 H12        -2.5534    0.5571    0.9309 H         1 <0>         0.1605
     35 H13        -4.2915    5.9556    0.9262 H         1 <0>         0.1164
     36 H14        -5.1829    6.1597   -0.6048 H         1 <0>         0.1248
     37 H15        -5.4694    3.8055    1.3194 H         1 <0>         0.0605
     38 H16        -6.6237    5.1481    1.1562 H         1 <0>         0.1135
     39 H17        -7.3501    3.1448   -0.1198 H         1 <0>         0.1046
     40 H18        -7.0458    4.5348   -1.1854 H         1 <0>         0.0937
     41 H19        -6.0508    2.4957   -2.1531 H         1 <0>         0.1125
     42 H20        -5.1197    2.2229   -0.6568 H         1 <0>         0.0744
     43 H21        -1.3060    3.0439   -1.4538 H         1 <0>         0.2306
     44 H22        -1.8317    2.3860   -3.2980 H         1 <0>         0.2288
     45 H23        -0.0167    0.0864   -0.0250 H         1 <0>         0.1320
     46 H24         1.0163    1.4453    0.0001 H         1 <0>         0.1514
     47 N1         -3.4234    3.4682    0.4081 N.pl3     1 <0>        -0.5187
     48 H25        -3.8551    3.4762    1.3396 H         1 <0>         0.4860
     49 N2         -3.5773    3.2940   -2.8541 N.pl3     1 <0>        -0.5442
     50 H26        -3.8175    3.3485   -3.8509 H         1 <0>         0.4937
@<TRIPOS>BOND
     1    1    2 1
     2    1   26 1
     3    1   27 1
     4    1   28 1
     5    2    3 1
     6    3    8 ar
     7    3    4 ar
     8    4    5 ar
     9    4   29 1
    10    5    6 ar
    11    5   30 1
    12    6    7 ar
    13    6    9 1
    14    7    8 ar
    15    7   31 1
    16    8   32 1
    17    9   10 1
    18    9   25 1
    19    9   11 1
    20   11   12 1
    21   11   33 1
    22   11   34 1
    23   12   22 1
    24   12   47 2
    25   13   14 1
    26   13   19 1
    27   13   15 1
    28   13   47 1
    29   15   16 1
    30   15   35 1
    31   15   36 1
    32   16   17 1
    33   16   37 1
    34   16   38 1
    35   17   18 1
    36   17   39 1
    37   17   40 1
    38   18   19 1
    39   18   41 1
    40   18   42 1
    41   19   20 1
    42   19   49 1
    43   21   44 1
    44   21   22 1
    45   21   49 2
    46   22   23 1
    47   22   43 1
    48   23   24 2
    49   23   25 1
    50   25   45 1
    51   25   46 1
    52   47   48 1
    53   49   50 1
@<TRIPOS>MOLECULE
ZINC05342765
   50    53     0     0     0
SMALL
USER_CHARGES
(4-methoxyphenyl)BLAHone
@<TRIPOS>ATOM
      1 C1         -7.8969    3.8702   -9.7100 C.3       1 <0>         0.0217
      2 O1         -8.4904    3.2745   -8.5546 O.3       1 <0>        -0.3080
      3 C2         -7.7362    3.2344   -7.4248 C.ar      1 <0>         0.1589
      4 C3         -8.2500    2.6702   -6.2662 C.ar      1 <0>        -0.1473
      5 C4         -7.4815    2.6309   -5.1189 C.ar      1 <0>        -0.0560
      6 C5         -6.2015    3.1538   -5.1246 C.ar      1 <0>        -0.1659
      7 C6         -5.6893    3.7217   -6.2765 C.ar      1 <0>        -0.0686
      8 C7         -6.4515    3.7579   -7.4280 C.ar      1 <0>        -0.2049
      9 C8         -5.3655    3.1101   -3.8715 C.3       1 <0>        -0.0304
     10 H1         -5.9336    2.6154   -3.0837 H         1 <0>         0.1099
     11 C9         -4.0947    2.3085   -4.1479 C.3       1 <0>        -0.1250
     12 C10        -3.2856    2.2665   -2.8609 C.2       1 <0>         0.3724
     13 C11        -2.1596    0.9444   -1.1858 C.3       1 <0>         0.0462
     14 H2         -2.0096   -0.1257   -1.0430 H         1 <0>         0.1789
     15 C12        -2.9267    1.4681    0.0201 C.3       1 <0>        -0.1409
     16 C13        -2.1756    1.0507    1.2908 C.3       1 <0>        -0.1244
     17 C14        -0.7441    1.5869    1.2563 C.3       1 <0>        -0.1441
     18 C15        -0.0127    1.0858    0.0080 C.3       1 <0>        -0.1422
     19 C16        -0.7749    1.6051   -1.2323 C.3       1 <0>         0.0807
     20 H3         -0.2480    1.3688   -2.1568 H         1 <0>         0.1682
     21 C17        -1.9367    3.7940   -1.4153 C.2       1 <0>         0.3138
     22 C18        -3.0030    3.5578   -2.2292 C.3       1 <0>        -0.1560
     23 C19        -3.8671    4.6445   -2.5390 C.2       1 <0>         0.3915
     24 O2         -3.6272    5.7268   -2.0436 O.2       1 <0>        -0.3872
     25 C20        -5.0499    4.5289   -3.4375 C.3       1 <0>        -0.1493
     26 H4         -6.9950    3.3206   -9.9794 H         1 <0>         0.0610
     27 H5         -8.6036    3.8375  -10.5393 H         1 <0>         0.1116
     28 H6         -7.6395    4.9068   -9.4927 H         1 <0>         0.0621
     29 H7         -9.2500    2.2623   -6.2610 H         1 <0>         0.1419
     30 H8         -7.8809    2.1918   -4.2167 H         1 <0>         0.1344
     31 H9         -4.6909    4.1337   -6.2770 H         1 <0>         0.1259
     32 H10        -6.0495    4.1980   -8.3287 H         1 <0>         0.1382
     33 H11        -3.5725    2.7523   -4.8761 H         1 <0>         0.1440
     34 H12        -4.3552    1.2953   -4.4538 H         1 <0>         0.1422
     35 H13        -2.9895    2.5552   -0.0287 H         1 <0>         0.0487
     36 H14        -3.9302    1.0426    0.0298 H         1 <0>         0.1210
     37 H15        -2.6907    1.4522    2.1634 H         1 <0>         0.1059
     38 H16        -2.1503   -0.0371    1.3548 H         1 <0>         0.0979
     39 H17        -0.2109    1.2493    2.1450 H         1 <0>         0.1105
     40 H18        -0.7689    2.6766    1.2451 H         1 <0>         0.0643
     41 H19         0.0021   -0.0041    0.0020 H         1 <0>         0.1230
     42 H20         1.0080    1.4683    0.0003 H         1 <0>         0.1153
     43 H21        -3.4735    3.6080   -1.3482 H         1 <0>         0.2303
     44 H22        -1.9196    4.7906   -0.9994 H         1 <0>         0.2232
     45 H23        -4.8519    5.0876   -4.2429 H         1 <0>         0.1319
     46 H24        -5.9192    4.9343   -2.9198 H         1 <0>         0.1521
     47 N1         -2.8917    1.0503   -2.4888 N.pl3     1 <0>        -0.5210
     48 H25        -3.0809    0.2237   -3.0677 H         1 <0>         0.4913
     49 N2         -0.8453    3.1096   -0.9874 N.pl3     1 <0>        -0.5391
     50 H26        -0.0796    3.5963   -0.5067 H         1 <0>         0.4912
@<TRIPOS>BOND
     1    1    2 1
     2    1   26 1
     3    1   27 1
     4    1   28 1
     5    2    3 1
     6    3    8 ar
     7    3    4 ar
     8    4    5 ar
     9    4   29 1
    10    5    6 ar
    11    5   30 1
    12    6    7 ar
    13    6    9 1
    14    7    8 ar
    15    7   31 1
    16    8   32 1
    17    9   10 1
    18    9   25 1
    19    9   11 1
    20   11   12 1
    21   11   33 1
    22   11   34 1
    23   12   22 1
    24   12   47 2
    25   13   14 1
    26   13   19 1
    27   13   15 1
    28   13   47 1
    29   15   16 1
    30   15   35 1
    31   15   36 1
    32   16   17 1
    33   16   37 1
    34   16   38 1
    35   17   18 1
    36   17   39 1
    37   17   40 1
    38   18   19 1
    39   18   41 1
    40   18   42 1
    41   19   20 1
    42   19   49 1
    43   21   44 1
    44   21   22 1
    45   21   49 2
    46   22   23 1
    47   22   43 1
    48   23   24 2
    49   23   25 1
    50   25   45 1
    51   25   46 1
    52   47   48 1
    53   49   50 1
@<TRIPOS>MOLECULE
ZINC05342767
   50    53     0     0     0
SMALL
USER_CHARGES
(4-methoxyphenyl)BLAHone
@<TRIPOS>ATOM
      1 C1          6.5620    3.2979   -2.9004 C.3       1 <0>         0.0224
      2 O1          6.5112    4.6512   -2.4446 O.3       1 <0>        -0.3012
      3 C2          5.2896    5.1447   -2.1114 C.ar      1 <0>         0.1566
      4 C3          5.1672    6.4512   -1.6611 C.ar      1 <0>        -0.1225
      5 C4          3.9242    6.9505   -1.3235 C.ar      1 <0>        -0.0459
      6 C5          2.8027    6.1494   -1.4340 C.ar      1 <0>        -0.1566
      7 C6          2.9228    4.8452   -1.8771 C.ar      1 <0>        -0.1319
      8 C7          4.1628    4.3429   -2.2214 C.ar      1 <0>        -0.1970
      9 C8          1.4479    6.6967   -1.0650 C.3       1 <0>        -0.0407
     10 H1          1.5571    7.7363   -0.7559 H         1 <0>         0.1526
     11 C9          0.8862    5.8869    0.1016 C.3       1 <0>        -0.1160
     12 C10         0.7741    4.4376   -0.3522 C.2       1 <0>         0.3680
     13 C11         1.3990    2.1053    0.0000 C.3       1 <0>         0.0733
     14 H2          1.8520    1.9715   -0.9823 H         1 <0>         0.1526
     15 C12         2.2746    1.4594    1.0789 C.3       1 <0>        -0.1399
     16 C13         2.2841   -0.0598    0.9530 C.3       1 <0>        -0.1262
     17 C14         0.8460   -0.5573    1.1444 C.3       1 <0>        -0.1265
     18 C15         0.0021   -0.0041    0.0020 C.3       1 <0>        -0.1436
     19 C16        -0.0187    1.5287    0.0104 C.3       1 <0>         0.0784
     20 H3         -0.5635    1.8910    0.8823 H         1 <0>         0.1601
     21 C17        -0.5747    3.0338   -1.9028 C.2       1 <0>         0.3122
     22 C18         0.0430    4.2115   -1.6023 C.3       1 <0>        -0.1552
     23 C19        -0.0740    5.2966   -2.5109 C.2       1 <0>         0.3916
     24 O2         -0.7102    5.1255   -3.5308 O.2       1 <0>        -0.3849
     25 C20         0.5417    6.6345   -2.2800 C.3       1 <0>        -0.1444
     26 H4          7.5931    3.0309   -3.1321 H         1 <0>         0.1163
     27 H5          6.1820    2.6374   -2.1210 H         1 <0>         0.0564
     28 H6          5.9495    3.1929   -3.7960 H         1 <0>         0.0608
     29 H7          6.0428    7.0774   -1.5749 H         1 <0>         0.1512
     30 H8          3.8284    7.9674   -0.9726 H         1 <0>         0.1508
     31 H9          2.0459    4.2200   -1.9581 H         1 <0>         0.0659
     32 H10         4.2555    3.3255   -2.5717 H         1 <0>         0.1343
     33 H11        -0.0123    6.2458    0.3544 H         1 <0>         0.1462
     34 H12         1.5587    5.9553    0.9567 H         1 <0>         0.1404
     35 H13         1.8898    1.7332    2.0613 H         1 <0>         0.1025
     36 H14         3.2943    1.8316    0.9804 H         1 <0>         0.1111
     37 H15         2.9282   -0.4895    1.7202 H         1 <0>         0.1064
     38 H16         2.6449   -0.3457   -0.0350 H         1 <0>         0.0828
     39 H17         0.4560   -0.2000    2.0974 H         1 <0>         0.0860
     40 H18         0.8268   -1.6470    1.1227 H         1 <0>         0.1054
     41 H19        -1.0182   -0.3747    0.1009 H         1 <0>         0.1113
     42 H20         0.4162   -0.3495   -0.9452 H         1 <0>         0.0971
     43 H21         0.6733    3.8714   -2.3002 H         1 <0>         0.2300
     44 H22        -1.0470    3.0164   -2.8738 H         1 <0>         0.2240
     45 H23         1.0693    6.8531   -3.1009 H         1 <0>         0.1288
     46 H24        -0.2560    7.3669   -2.1559 H         1 <0>         0.1600
     47 N1          1.3674    3.5645    0.4477 N.pl3     1 <0>        -0.5291
     48 H25         1.7905    3.8581    1.3359 H         1 <0>         0.4871
     49 N2         -0.7825    1.8367   -1.2787 N.pl3     1 <0>        -0.5523
     50 H26        -1.4419    1.1534   -1.6691 H         1 <0>         0.4910
@<TRIPOS>BOND
     1    1    2 1
     2    1   26 1
     3    1   27 1
     4    1   28 1
     5    2    3 1
     6    3    8 ar
     7    3    4 ar
     8    4    5 ar
     9    4   29 1
    10    5    6 ar
    11    5   30 1
    12    6    7 ar
    13    6    9 1
    14    7    8 ar
    15    7   31 1
    16    8   32 1
    17    9   10 1
    18    9   25 1
    19    9   11 1
    20   11   12 1
    21   11   33 1
    22   11   34 1
    23   12   22 1
    24   12   47 2
    25   13   14 1
    26   13   19 1
    27   13   15 1
    28   13   47 1
    29   15   16 1
    30   15   35 1
    31   15   36 1
    32   16   17 1
    33   16   37 1
    34   16   38 1
    35   17   18 1
    36   17   39 1
    37   17   40 1
    38   18   19 1
    39   18   41 1
    40   18   42 1
    41   19   20 1
    42   19   49 1
    43   21   44 1
    44   21   22 1
    45   21   49 2
    46   22   23 1
    47   22   43 1
    48   23   24 2
    49   23   25 1
    50   25   45 1
    51   25   46 1
    52   47   48 1
    53   49   50 1
@<TRIPOS>MOLECULE
ZINC05342770
   50    53     0     0     0
SMALL
USER_CHARGES
(4-methoxyphenyl)BLAHone
@<TRIPOS>ATOM
      1 C1         -5.3468    2.9626   -9.0796 C.3       1 <0>         0.0216
      2 O1         -4.2164    2.0938   -8.9826 O.3       1 <0>        -0.3079
      3 C2         -3.8402    1.7079   -7.7350 C.ar      1 <0>         0.1592
      4 C3         -2.7511    0.8650   -7.5673 C.ar      1 <0>        -0.1470
      5 C4         -2.3709    0.4737   -6.2981 C.ar      1 <0>        -0.0563
      6 C5         -3.0751    0.9212   -5.1956 C.ar      1 <0>        -0.1656
      7 C6         -4.1643    1.7568   -5.3604 C.ar      1 <0>        -0.0692
      8 C7         -4.5448    2.1558   -6.6271 C.ar      1 <0>        -0.2044
      9 C8         -2.6585    0.4924   -3.8122 C.3       1 <0>        -0.0294
     10 H1         -1.8018   -0.1770   -3.8904 H         1 <0>         0.1082
     11 C9         -2.2544    1.7276   -3.0095 C.3       1 <0>        -0.1260
     12 C10        -1.8180    1.2620   -1.6292 C.2       1 <0>         0.3660
     13 C11        -0.0127    1.0858    0.0080 C.3       1 <0>         0.0739
     14 H2          0.0021   -0.0041    0.0020 H         1 <0>         0.1538
     15 C12         1.4183    1.6339   -0.0027 C.3       1 <0>        -0.1410
     16 C13         2.1326    1.3567    1.3150 C.3       1 <0>        -0.1269
     17 C14         1.3569    2.0685    2.4305 C.3       1 <0>        -0.1257
     18 C15        -0.0275    1.4362    2.5147 C.3       1 <0>        -0.1472
     19 C16        -0.7987    1.5957    1.2178 C.3       1 <0>         0.0819
     20 H3         -1.0603    2.6446    1.0781 H         1 <0>         0.1578
     21 C17        -2.7411    0.2321    0.4450 C.2       1 <0>         0.3137
     22 C18        -2.7537    0.3969   -0.9064 C.3       1 <0>        -0.1445
     23 C19        -3.7282   -0.3039   -1.6695 C.2       1 <0>         0.3902
     24 O2         -4.5398   -0.9849   -1.0764 O.2       1 <0>        -0.3842
     25 C20        -3.8081   -0.2492   -3.1565 C.3       1 <0>        -0.1492
     26 H4         -6.2199    2.4723   -8.6490 H         1 <0>         0.0623
     27 H5         -5.1435    3.8854   -8.5364 H         1 <0>         0.0612
     28 H6         -5.5393    3.1927  -10.1275 H         1 <0>         0.1117
     29 H7         -2.2007    0.5152   -8.4282 H         1 <0>         0.1419
     30 H8         -1.5232   -0.1824   -6.1670 H         1 <0>         0.1337
     31 H9         -4.7156    2.1011   -4.4979 H         1 <0>         0.1275
     32 H10        -5.3927    2.8123   -6.7550 H         1 <0>         0.1387
     33 H11        -1.5030    2.1960   -3.4743 H         1 <0>         0.1238
     34 H12        -3.1043    2.4043   -2.9203 H         1 <0>         0.1634
     35 H13         1.9736    1.1641   -0.8145 H         1 <0>         0.1118
     36 H14         1.3862    2.7105   -0.1697 H         1 <0>         0.1017
     37 H15         2.1513    0.2836    1.5057 H         1 <0>         0.0837
     38 H16         3.1516    1.7410    1.2702 H         1 <0>         0.1064
     39 H17         1.8779    1.9435    3.3797 H         1 <0>         0.1051
     40 H18         1.2644    3.1291    2.1966 H         1 <0>         0.0854
     41 H19         0.0790    0.3720    2.7250 H         1 <0>         0.0965
     42 H20        -0.5848    1.9054    3.3254 H         1 <0>         0.1118
     43 H21        -2.3703   -0.5240   -0.8367 H         1 <0>         0.2324
     44 H22        -3.4692   -0.4756    0.8128 H         1 <0>         0.2246
     45 H23        -3.8202   -1.1962   -3.4776 H         1 <0>         0.1295
     46 H24        -4.7411    0.2404   -3.4358 H         1 <0>         0.1550
     47 N1         -0.5852    1.6562   -1.2830 N.pl3     1 <0>        -0.5348
     48 H25        -0.0501    2.3138   -1.8622 H         1 <0>         0.4880
     49 N2         -2.0454    0.7557    1.4977 N.pl3     1 <0>        -0.5540
     50 H26        -2.3549    0.5877    2.4621 H         1 <0>         0.4909
@<TRIPOS>BOND
     1    1    2 1
     2    1   26 1
     3    1   27 1
     4    1   28 1
     5    2    3 1
     6    3    8 ar
     7    3    4 ar
     8    4    5 ar
     9    4   29 1
    10    5    6 ar
    11    5   30 1
    12    6    7 ar
    13    6    9 1
    14    7    8 ar
    15    7   31 1
    16    8   32 1
    17    9   10 1
    18    9   25 1
    19    9   11 1
    20   11   12 1
    21   11   33 1
    22   11   34 1
    23   12   22 1
    24   12   47 2
    25   13   14 1
    26   13   19 1
    27   13   15 1
    28   13   47 1
    29   15   16 1
    30   15   35 1
    31   15   36 1
    32   16   17 1
    33   16   37 1
    34   16   38 1
    35   17   18 1
    36   17   39 1
    37   17   40 1
    38   18   19 1
    39   18   41 1
    40   18   42 1
    41   19   20 1
    42   19   49 1
    43   21   44 1
    44   21   22 1
    45   21   49 2
    46   22   23 1
    47   22   43 1
    48   23   24 2
    49   23   25 1
    50   25   45 1
    51   25   46 1
    52   47   48 1
    53   49   50 1
@<TRIPOS>MOLECULE
ZINC05342778
   27    29     0     0     0
SMALL
USER_CHARGES
5-(benzo[1,3]dioxol-5-ylmethylene)-2-methyl-3H-imidazol-4-one
@<TRIPOS>ATOM
      1 C1         -2.0454   -5.6569   -0.0819 C.3       1 <0>        -0.0829
      2 C2         -1.2948   -4.3504   -0.0608 C.2       1 <0>         0.3488
      3 N1         -1.8587   -3.1836   -0.0331 N.2       1 <0>        -0.4976
      4 C3         -0.8938   -2.2150   -0.0204 C.2       1 <0>        -0.0636
      5 C4         -1.0850   -0.8507    0.0082 C.2       1 <0>         0.0580
      6 C5         -2.4384   -0.2988   -0.0865 C.ar      1 <0>        -0.0882
      7 C6         -2.6282    1.0870   -0.1835 C.ar      1 <0>        -0.0714
      8 C7         -3.9014    1.6018   -0.2723 C.ar      1 <0>        -0.1159
      9 C8         -5.0021    0.7534   -0.2664 C.ar      1 <0>         0.0556
     10 C9         -4.8219   -0.6282   -0.1700 C.ar      1 <0>         0.0165
     11 C10        -3.5490   -1.1544   -0.0863 C.ar      1 <0>        -0.0686
     12 O1         -6.0480   -1.2289   -0.1851 O.3       1 <0>        -0.3053
     13 C11        -6.9906   -0.1846    0.1211 C.3       1 <0>         0.2117
     14 O2         -6.3388    1.0126   -0.3418 O.3       1 <0>        -0.3066
     15 C12         0.3925   -2.9323   -0.0442 C.2       1 <0>         0.5196
     16 O3          1.5096   -2.4472   -0.0428 O.2       1 <0>        -0.4853
     17 N2          0.0676   -4.2439   -0.0685 N.am      1 <0>        -0.6789
     18 H1         -3.0289   -5.4765   -0.0716 H         1 <0>         0.0896
     19 H2         -1.7869   -6.2099   -0.9849 H         1 <0>         0.0936
     20 H3         -1.7747   -6.2456    0.7946 H         1 <0>         0.0933
     21 H4         -0.2370   -0.1884    0.1006 H         1 <0>         0.1553
     22 H5         -1.7757    1.7501   -0.1888 H         1 <0>         0.1454
     23 H6         -4.0458    2.6695   -0.3466 H         1 <0>         0.1407
     24 H7         -3.4088   -2.2230   -0.0167 H         1 <0>         0.1881
     25 H8         -7.1688   -0.1326    1.1952 H         1 <0>         0.0862
     26 H9         -7.9271   -0.3420   -0.4140 H         1 <0>         0.1341
     27 H10         0.6946   -4.9837   -0.0875 H         1 <0>         0.4279
@<TRIPOS>BOND
     1    1    2 1
     2    1   18 1
     3    1   19 1
     4    1   20 1
     5    2   17 1
     6    2    3 2
     7    3    4 1
     8    4    5 2
     9    4   15 1
    10    5    6 1
    11    5   21 1
    12    6   11 ar
    13    6    7 ar
    14    7    8 ar
    15    7   22 1
    16    8    9 ar
    17    8   23 1
    18    9   14 1
    19    9   10 ar
    20   10   11 ar
    21   10   12 1
    22   11   24 1
    23   12   13 1
    24   13   14 1
    25   13   25 1
    26   13   26 1
    27   15   16 2
    28   15   17 am
    29   17   27 1
@<TRIPOS>MOLECULE
ZINC05342798
   43    45     0     0     0
SMALL
USER_CHARGES
N-benzyl-5-(2-hydroxy-3,5-dimethyl-phenyl)-2H-pyrazole-3-carboxamide
@<TRIPOS>ATOM
      1 C1         -1.2941   -0.7726    0.0226 C.3       1 <0>        -0.1180
      2 C2          0.0022   -0.0041    0.0127 C.ar      1 <0>        -0.0767
      3 C3         -0.0165    1.3795    0.0214 C.ar      1 <0>        -0.1022
      4 C4          1.1671    2.0928    0.0125 C.ar      1 <0>        -0.0928
      5 C5          2.3805    1.4238   -0.0054 C.ar      1 <0>         0.0932
      6 C6          2.4025    0.0264   -0.0147 C.ar      1 <0>        -0.0364
      7 C7          1.2040   -0.6827   -0.0055 C.ar      1 <0>        -0.0878
      8 C8          3.6973   -0.6985   -0.0337 C.2       1 <0>         0.0457
      9 C9          3.8680   -2.0951   -0.0386 C.2       1 <0>        -0.1526
     10 C10         5.2352   -2.2951   -0.0612 C.2       1 <0>        -0.0208
     11 N1          5.8079   -1.0544   -0.0687 N.2       1 <0>        -0.2815
     12 H1          5.0693    0.8329   -0.0513 H         1 <0>         0.4549
     13 N2          4.8946   -0.1517   -0.0514 N.pl3     1 <0>        -0.3196
     14 C11         5.9363   -3.5893   -0.0745 C.2       1 <0>         0.6066
     15 O1          5.2998   -4.6258   -0.0741 O.2       1 <0>        -0.5305
     16 N3          7.2835   -3.6258   -0.0871 N.am      1 <0>        -0.7140
     17 C12         7.9812   -4.9139   -0.1003 C.3       1 <0>         0.1609
     18 C13         9.4697   -4.6788   -0.1127 C.ar      1 <0>        -0.1113
     19 C14        10.1423   -4.5703   -1.3155 C.ar      1 <0>        -0.0996
     20 C15        11.5068   -4.3493   -1.3269 C.ar      1 <0>        -0.1219
     21 C16        12.2005   -4.2478   -0.1355 C.ar      1 <0>        -0.1110
     22 C17        11.5288   -4.3620    1.0673 C.ar      1 <0>        -0.1217
     23 C18        10.1634   -4.5773    1.0787 C.ar      1 <0>        -0.0995
     24 O2          3.5448    2.1240   -0.0138 O.3       1 <0>        -0.4972
     25 C19         1.1381    3.5995    0.0221 C.3       1 <0>        -0.1110
     26 H2         -1.6182   -0.9516   -1.0026 H         1 <0>         0.0755
     27 H3         -1.1469   -1.7266    0.5290 H         1 <0>         0.0716
     28 H4         -2.0546   -0.1956    0.5486 H         1 <0>         0.0704
     29 H5         -0.9604    1.9043    0.0307 H         1 <0>         0.1318
     30 H6          1.2149   -1.7626   -0.0123 H         1 <0>         0.1364
     31 H7          3.0956   -2.8497   -0.0272 H         1 <0>         0.1658
     32 H8          7.7911   -2.7993   -0.0874 H         1 <0>         0.4089
     33 H9          7.7107   -5.4829    0.7892 H         1 <0>         0.0798
     34 H10         7.6943   -5.4735   -0.9906 H         1 <0>         0.0798
     35 H11         9.6010   -4.6540   -2.2463 H         1 <0>         0.1244
     36 H12        12.0316   -4.2598   -2.2666 H         1 <0>         0.1247
     37 H13        13.2672   -4.0789   -0.1444 H         1 <0>         0.1238
     38 H14        12.0708   -4.2827    1.9981 H         1 <0>         0.1247
     39 H15         9.6386   -4.6665    2.0184 H         1 <0>         0.1245
     40 H16         3.8721    2.3324   -0.8995 H         1 <0>         0.3888
     41 H17         1.1427    3.9564    1.0520 H         1 <0>         0.0756
     42 H18         2.0151    3.9831   -0.4992 H         1 <0>         0.0687
     43 H19         0.2356    3.9488   -0.4794 H         1 <0>         0.0697
@<TRIPOS>BOND
     1    1    2 1
     2    1   26 1
     3    1   27 1
     4    1   28 1
     5    2    7 ar
     6    2    3 ar
     7    3    4 ar
     8    3   29 1
     9    4    5 ar
    10    4   25 1
    11    5    6 ar
    12    5   24 1
    13    6    7 ar
    14    6    8 1
    15    7   30 1
    16    8    9 2
    17    8   13 1
    18    9   31 1
    19    9   10 1
    20   10   14 1
    21   10   11 2
    22   11   13 1
    23   12   13 1
    24   14   15 2
    25   14   16 am
    26   16   17 1
    27   16   32 1
    28   17   18 1
    29   17   33 1
    30   17   34 1
    31   18   23 ar
    32   18   19 ar
    33   19   20 ar
    34   19   35 1
    35   20   21 ar
    36   20   36 1
    37   21   22 ar
    38   21   37 1
    39   22   23 ar
    40   22   38 1
    41   23   39 1
    42   24   40 1
    43   25   41 1
    44   25   42 1
    45   25   43 1
@<TRIPOS>MOLECULE
ZINC01275367
   38    40     0     0     0
SMALL
USER_CHARGES
acetyl-tetramethyl-BLAHdione
@<TRIPOS>ATOM
      1 C1         -2.9304    6.0262    0.9593 C.3       1 <0>        -0.1578
      2 C2         -1.6087    5.6614    1.6382 C.3       1 <0>         0.1409
      3 H1         -1.1617    6.5585    2.0665 H         1 <0>         0.1337
      4 C3         -0.6702    5.0742    0.6213 C.2       1 <0>         0.1314
      5 N1         -0.3513    3.8454    0.5684 N.2       1 <0>        -0.2310
      6 N2         -0.8571    2.8939    1.4696 N.am      1 <0>        -0.3851
      7 C4         -1.5014    3.3748    2.6015 C.2       1 <0>         0.4678
      8 N3         -1.8604    4.6889    2.7010 N.pl3     1 <0>        -0.4270
      9 C5         -2.4574    4.8422    3.9195 C.2       1 <0>        -0.1459
     10 C6         -2.4418    3.5764    4.5271 C.2       1 <0>         0.3358
     11 N4         -1.8569    2.7351    3.6887 N.2       1 <0>        -0.4580
     12 N5         -2.9862    3.4055    5.7920 N.am      1 <0>        -0.5055
     13 C7         -3.5182    4.4965    6.3898 C.2       1 <0>         0.7059
     14 O1         -4.0018    4.3702    7.4984 O.2       1 <0>        -0.5313
     15 N6         -3.5380    5.7105    5.8201 N.am      1 <0>        -0.5521
     16 C8         -3.0243    5.9471    4.5880 C.2       1 <0>         0.6038
     17 O2         -3.0507    7.0565    4.0846 O.2       1 <0>        -0.5043
     18 C9         -4.1386    6.8245    6.5579 C.3       1 <0>         0.0804
     19 C10        -2.9868    2.0975    6.4519 C.3       1 <0>         0.0947
     20 C11        -0.7181    1.5718    1.2479 C.2       1 <0>         0.5462
     21 O3         -1.1606    0.7733    2.0461 O.2       1 <0>        -0.4649
     22 C12        -0.0127    1.0858    0.0080 C.3       1 <0>        -0.1515
     23 C13        -0.0628    6.0039   -0.3973 C.3       1 <0>        -0.1012
     24 H2         -3.6094    6.4582    1.6945 H         1 <0>         0.0868
     25 H3         -2.7439    6.7511    0.1670 H         1 <0>         0.0954
     26 H4         -3.3795    5.1292    0.5329 H         1 <0>         0.0647
     27 H5         -5.2004    6.8878    6.3195 H         1 <0>         0.0772
     28 H6         -4.0158    6.6596    7.6283 H         1 <0>         0.0976
     29 H7         -3.6466    7.7551    6.2749 H         1 <0>         0.0951
     30 H8         -2.0741    1.9854    7.0371 H         1 <0>         0.0752
     31 H9         -3.8521    2.0232    7.1105 H         1 <0>         0.0960
     32 H10        -3.0346    1.3107    5.6991 H         1 <0>         0.0945
     33 H11         0.0021   -0.0041    0.0020 H         1 <0>         0.1014
     34 H12         1.0099    1.4631    0.0003 H         1 <0>         0.1012
     35 H13        -0.5399    1.4469   -0.8751 H         1 <0>         0.0975
     36 H14         0.8760    6.4018   -0.0119 H         1 <0>         0.0988
     37 H15         0.1263    5.4572   -1.3211 H         1 <0>         0.0973
     38 H16        -0.7514    6.8253   -0.5957 H         1 <0>         0.0964
@<TRIPOS>BOND
     1    1    2 1
     2    1   24 1
     3    1   25 1
     4    1   26 1
     5    2    3 1
     6    2    8 1
     7    2    4 1
     8    4    5 2
     9    4   23 1
    10    5    6 1
    11    6    7 1
    12    6   20 am
    13    7   11 2
    14    7    8 1
    15    8    9 1
    16    9   16 1
    17    9   10 2
    18   10   11 1
    19   10   12 1
    20   12   13 am
    21   12   19 1
    22   13   14 2
    23   13   15 am
    24   15   16 am
    25   15   18 1
    26   16   17 2
    27   18   27 1
    28   18   28 1
    29   18   29 1
    30   19   30 1
    31   19   31 1
    32   19   32 1
    33   20   21 2
    34   20   22 1
    35   22   33 1
    36   22   34 1
    37   22   35 1
    38   23   36 1
    39   23   37 1
    40   23   38 1
@<TRIPOS>MOLECULE
ZINC01275366
   38    40     0     0     0
SMALL
USER_CHARGES
acetyl-tetramethyl-BLAHdione
@<TRIPOS>ATOM
      1 C1          1.4034   -0.5504    1.9685 C.3       1 <0>        -0.1573
      2 C2          0.0243   -0.7145    1.3265 C.3       1 <0>         0.1407
      3 H1         -0.7336   -0.2842    1.9812 H         1 <0>         0.1336
      4 C3          0.0021   -0.0041    0.0020 C.2       1 <0>         0.1320
      5 N1         -0.0057   -0.5921   -1.1231 N.2       1 <0>        -0.2320
      6 N2          0.0092   -1.9912   -1.2467 N.am      1 <0>        -0.3837
      7 C4         -0.2488   -2.7294   -0.0996 C.2       1 <0>         0.4674
      8 N3         -0.2531   -2.1370    1.1311 N.pl3     1 <0>        -0.4271
      9 C5         -0.5495   -3.1147    2.0372 C.2       1 <0>        -0.1459
     10 C6         -0.7124   -4.2983    1.2993 C.2       1 <0>         0.3357
     11 N4         -0.5186   -4.0061    0.0226 N.2       1 <0>        -0.4579
     12 N5         -1.0224   -5.4850    1.9482 N.am      1 <0>        -0.5056
     13 C7         -1.1564   -5.4384    3.2938 C.2       1 <0>         0.7060
     14 O1         -1.4282   -6.4664    3.8836 O.2       1 <0>        -0.5312
     15 N6         -1.0039   -4.3141    4.0091 N.am      1 <0>        -0.5522
     16 C8         -0.7007   -3.1220    3.4394 C.2       1 <0>         0.6038
     17 O2         -0.5661   -2.1095    4.1039 O.2       1 <0>        -0.5044
     18 C9         -1.1722   -4.3768    5.4631 C.3       1 <0>         0.0805
     19 C10        -1.1977   -6.7365    1.2070 C.3       1 <0>         0.0951
     20 C11         0.2583   -2.5911   -2.4277 C.2       1 <0>         0.5470
     21 O3          0.2603   -3.8013   -2.5045 O.2       1 <0>        -0.4660
     22 C12         0.5344   -1.7578   -3.6526 C.3       1 <0>        -0.1586
     23 C13        -0.0184    1.5028    0.0103 C.3       1 <0>        -0.1007
     24 H2          1.6096    0.5091    2.1204 H         1 <0>         0.0956
     25 H3          1.4205   -1.0652    2.9291 H         1 <0>         0.0862
     26 H4          2.1623   -0.9781    1.3134 H         1 <0>         0.0643
     27 H5         -2.2155   -4.1887    5.7165 H         1 <0>         0.0772
     28 H6         -0.8842   -5.3656    5.8199 H         1 <0>         0.0977
     29 H7         -0.5421   -3.6226    5.9346 H         1 <0>         0.0951
     30 H8         -0.2394   -7.2502    1.1297 H         1 <0>         0.0755
     31 H9         -1.9099   -7.3730    1.7320 H         1 <0>         0.0959
     32 H10        -1.5741   -6.5173    0.2078 H         1 <0>         0.0938
     33 H11         0.4903   -0.7007   -3.3905 H         1 <0>         0.0969
     34 H12         1.5259   -1.9956   -4.0379 H         1 <0>         0.1040
     35 H13        -0.2134   -1.9744   -4.4155 H         1 <0>         0.1059
     36 H14         1.0042    1.8801    0.0026 H         1 <0>         0.1010
     37 H15        -0.5455    1.8639   -0.8728 H         1 <0>         0.0964
     38 H16        -0.5286    1.8543    0.9071 H         1 <0>         0.0950
@<TRIPOS>BOND
     1    1    2 1
     2    1   24 1
     3    1   25 1
     4    1   26 1
     5    2    3 1
     6    2    8 1
     7    2    4 1
     8    4    5 2
     9    4   23 1
    10    5    6 1
    11    6    7 1
    12    6   20 am
    13    7   11 2
    14    7    8 1
    15    8    9 1
    16    9   16 1
    17    9   10 2
    18   10   11 1
    19   10   12 1
    20   12   13 am
    21   12   19 1
    22   13   14 2
    23   13   15 am
    24   15   16 am
    25   15   18 1
    26   16   17 2
    27   18   27 1
    28   18   28 1
    29   18   29 1
    30   19   30 1
    31   19   31 1
    32   19   32 1
    33   20   21 2
    34   20   22 1
    35   22   33 1
    36   22   34 1
    37   22   35 1
    38   23   36 1
    39   23   37 1
    40   23   38 1
@<TRIPOS>MOLECULE
ZINC02213268
   28    30     0     0     0
SMALL
USER_CHARGES
2,4-dichloro-N-(3-oxo-2,6,7,9-tetrazabicyclo[4.3.0]nona-4,7,9-trien-5-yl)-benzamide
@<TRIPOS>ATOM
      1 C1          1.1648    1.7934   -0.0080 C.ar      1 <0>        -0.1126
      2 C2         -0.0168    1.0832    0.0029 C.ar      1 <0>        -0.0579
      3 C3         -1.2368    1.7621   -0.0333 C.ar      1 <0>        -0.1304
      4 C4         -1.2512    3.1597   -0.0688 C.ar      1 <0>         0.0309
      5 C5         -0.0609    3.8585   -0.0794 C.ar      1 <0>        -0.1112
      6 C6          1.1447    3.1780   -0.0491 C.ar      1 <0>         0.0059
      7 Cl1         2.6376    4.0639   -0.0620 Cl        1 <0>        -0.0395
      8 Cl2        -2.7621    4.0137   -0.1075 Cl        1 <0>        -0.0095
      9 C7         -2.5057    1.0074   -0.0280 C.2       1 <0>         0.5649
     10 O1         -3.5660    1.6009   -0.0596 O.2       1 <0>        -0.4615
     11 N1         -2.4884   -0.3397    0.0119 N.am      1 <0>        -0.6732
     12 C8         -3.6700   -1.0412    0.1177 C.2       1 <0>         0.4518
     13 C9         -3.8644   -1.9008    1.1560 C.2       1 <0>        -0.2591
     14 C10        -5.0773   -2.6070    1.2541 C.2       1 <0>         0.5633
     15 O2         -5.2632   -3.3752    2.1825 O.2       1 <0>        -0.5026
     16 N2         -6.0317   -2.4363    0.3178 N.am      1 <0>        -0.6086
     17 H1         -6.8924   -2.9408    0.3854 H         1 <0>         0.4455
     18 C11        -5.8246   -1.5687   -0.7319 C.2       1 <0>         0.5158
     19 N3         -4.6555   -0.8803   -0.8278 N.pl3     1 <0>        -0.3513
     20 N4         -4.7517   -0.0951   -1.9851 N.2       1 <0>        -0.2845
     21 C12        -5.9243   -0.3356   -2.5116 C.2       1 <0>         0.2533
     22 N5         -6.5733   -1.2232   -1.7588 N.2       1 <0>        -0.5372
     23 H2          2.1086    1.2689    0.0151 H         1 <0>         0.1520
     24 H3          0.0009    0.0039    0.0350 H         1 <0>         0.1460
     25 H4         -0.0698    4.9380   -0.1117 H         1 <0>         0.1555
     26 H5         -1.6444   -0.8154   -0.0338 H         1 <0>         0.4265
     27 H6         -3.0942   -2.0368    1.9008 H         1 <0>         0.1906
     28 H7         -6.3070    0.1146   -3.4156 H         1 <0>         0.2371
@<TRIPOS>BOND
     1    1    6 ar
     2    1    2 ar
     3    1   23 1
     4    2    3 ar
     5    2   24 1
     6    3    4 ar
     7    3    9 1
     8    4    5 ar
     9    4    8 1
    10    5    6 ar
    11    5   25 1
    12    6    7 1
    13    9   10 2
    14    9   11 am
    15   11   12 1
    16   11   26 1
    17   12   19 1
    18   12   13 2
    19   13   14 1
    20   13   27 1
    21   14   15 2
    22   14   16 am
    23   16   17 1
    24   16   18 1
    25   18   22 2
    26   18   19 1
    27   19   20 1
    28   20   21 2
    29   21   22 1
    30   21   28 1
@<TRIPOS>MOLECULE
ZINC02213360
   55    58     0     0     0
SMALL
USER_CHARGES
2-diethylamino-1-[2-(2-naphthyl)-4-quinolyl]-ethanol
@<TRIPOS>ATOM
      1 C1          7.0053   11.3096   -1.5429 C.3       1 <0>        -0.1912
      2 C2          5.8645   11.9318   -0.7352 C.3       1 <0>        -0.0175
      3 C3          4.5056   12.0745   -2.7341 C.3       1 <0>        -0.0127
      4 C4          4.3757   13.5990   -2.7241 C.3       1 <0>        -0.1881
      5 C5          4.3482   10.1304   -1.2995 C.3       1 <0>        -0.0450
      6 C6          4.1837    9.6933    0.1575 C.3       1 <0>         0.1329
      7 H1          5.0504   10.0170    0.7339 H         1 <0>         0.1364
      8 C7          4.0699    8.1920    0.2218 C.ar      1 <0>        -0.0806
      9 C8          2.8501    7.5838    0.2474 C.ar      1 <0>        -0.1376
     10 C9          2.7687    6.1837    0.3069 C.ar      1 <0>         0.2138
     11 N1          3.8520    5.4313    0.3445 N.ar      1 <0>        -0.4543
     12 C10         5.0726    5.9723    0.3163 C.ar      1 <0>         0.1409
     13 C11         5.2214    7.3809    0.2565 C.ar      1 <0>        -0.0925
     14 C12         6.5081    7.9414    0.2334 C.ar      1 <0>        -0.1253
     15 C13         7.5987    7.1266    0.2678 C.ar      1 <0>        -0.0928
     16 C14         7.4552    5.7418    0.3266 C.ar      1 <0>        -0.0978
     17 C15         6.2234    5.1641    0.3509 C.ar      1 <0>        -0.0796
     18 C16         1.4356    5.5361    0.3342 C.ar      1 <0>        -0.0747
     19 C17         0.2757    6.3279    0.3008 C.ar      1 <0>        -0.1027
     20 C18        -0.9570    5.7591    0.3247 C.ar      1 <0>        -0.1019
     21 C19        -1.0844    4.3594    0.3836 C.ar      1 <0>        -0.0384
     22 C20        -2.3486    3.7469    0.4088 C.ar      1 <0>        -0.1129
     23 C21        -2.4399    2.3897    0.4607 C.ar      1 <0>        -0.1015
     24 C22        -1.2962    1.5943    0.5002 C.ar      1 <0>        -0.1131
     25 C23        -0.0548    2.1515    0.4773 C.ar      1 <0>        -0.0993
     26 C24         0.0793    3.5502    0.4183 C.ar      1 <0>        -0.0612
     27 C25         1.3442    4.1576    0.3927 C.ar      1 <0>        -0.0415
     28 O1          3.0020   10.2844    0.7017 O.3       1 <0>        -0.5417
     29 H2          7.9498   11.4753   -1.0248 H         1 <0>         0.1092
     30 H3          6.8327   10.2387   -1.6501 H         1 <0>         0.0790
     31 H4          7.0461   11.7715   -2.5294 H         1 <0>         0.0845
     32 H5          5.9773   13.0159   -0.7228 H         1 <0>         0.1348
     33 H6          5.8930   11.5518    0.2860 H         1 <0>         0.1276
     34 H7          5.4113   11.7906   -3.2701 H         1 <0>         0.1337
     35 H8          3.6382   11.6392   -3.2303 H         1 <0>         0.1284
     36 H9          3.4843   13.8840   -2.1653 H         1 <0>         0.0811
     37 H10         5.2557   14.0355   -2.2517 H         1 <0>         0.0804
     38 H11         4.2946   13.9635   -3.7481 H         1 <0>         0.1071
     39 H12         5.1985    9.6108   -1.7409 H         1 <0>         0.1463
     40 H13         3.4437    9.8857   -1.8565 H         1 <0>         0.1380
     41 H14         1.9484    8.1778    0.2217 H         1 <0>         0.1422
     42 H15         6.6326    9.0133    0.1875 H         1 <0>         0.1210
     43 H16         8.5880    7.5594    0.2493 H         1 <0>         0.1340
     44 H17         8.3358    5.1169    0.3530 H         1 <0>         0.1391
     45 H18         6.1296    4.0892    0.3969 H         1 <0>         0.1438
     46 H19         0.3656    7.4033    0.2559 H         1 <0>         0.1228
     47 H20        -1.8395    6.3811    0.2981 H         1 <0>         0.1335
     48 H21        -3.2441    4.3501    0.3825 H         1 <0>         0.1311
     49 H22        -3.4134    1.9224    0.4759 H         1 <0>         0.1286
     50 H23        -1.3965    0.5199    0.5452 H         1 <0>         0.1289
     51 H24         0.8229    1.5227    0.5047 H         1 <0>         0.1314
     52 H25         2.2389    3.5533    0.4189 H         1 <0>         0.1420
     53 H26         2.1900   10.0396    0.2370 H         1 <0>         0.3897
     54 N2          4.5580   11.5930   -1.3377 N.4       1 <0>        -0.3919
     55 H27         3.8135   12.0509   -0.7988 H         1 <0>         0.4336
@<TRIPOS>BOND
     1    1    2 1
     2    1   29 1
     3    1   30 1
     4    1   31 1
     5    2   32 1
     6    2   33 1
     7    2   54 1
     8    3    4 1
     9    3   34 1
    10    3   35 1
    11    3   54 1
    12    4   36 1
    13    4   37 1
    14    4   38 1
    15    5    6 1
    16    5   39 1
    17    5   40 1
    18    5   54 1
    19    6    7 1
    20    6    8 1
    21    6   28 1
    22    8   13 ar
    23    8    9 ar
    24    9   10 ar
    25    9   41 1
    26   10   11 ar
    27   10   18 1
    28   11   12 ar
    29   12   17 ar
    30   12   13 ar
    31   13   14 ar
    32   14   15 ar
    33   14   42 1
    34   15   16 ar
    35   15   43 1
    36   16   17 ar
    37   16   44 1
    38   17   45 1
    39   18   27 ar
    40   18   19 ar
    41   19   20 ar
    42   19   46 1
    43   20   21 ar
    44   20   47 1
    45   21   26 ar
    46   21   22 ar
    47   22   23 ar
    48   22   48 1
    49   23   24 ar
    50   23   49 1
    51   24   25 ar
    52   24   50 1
    53   25   26 ar
    54   25   51 1
    55   26   27 ar
    56   27   52 1
    57   28   53 1
    58   54   55 1
@<TRIPOS>MOLECULE
ZINC02213361
   55    58     0     0     0
SMALL
USER_CHARGES
2-diethylamino-1-[2-(2-naphthyl)-4-quinolyl]-ethanol
@<TRIPOS>ATOM
      1 C1          7.0053   11.3096   -1.5429 C.3       1 <0>        -0.1912
      2 C2          5.8645   11.9318   -0.7352 C.3       1 <0>        -0.0175
      3 C3          4.5056   12.0745   -2.7341 C.3       1 <0>        -0.0127
      4 C4          4.3757   13.5990   -2.7241 C.3       1 <0>        -0.1881
      5 C5          4.3482   10.1304   -1.2995 C.3       1 <0>        -0.0450
      6 C6          4.1837    9.6933    0.1575 C.3       1 <0>         0.1329
      7 H1          5.0504   10.0170    0.7339 H         1 <0>         0.1364
      8 C7          4.0699    8.1920    0.2218 C.ar      1 <0>        -0.0806
      9 C8          2.8501    7.5838    0.2474 C.ar      1 <0>        -0.1376
     10 C9          2.7687    6.1837    0.3069 C.ar      1 <0>         0.2138
     11 N1          3.8520    5.4313    0.3445 N.ar      1 <0>        -0.4543
     12 C10         5.0726    5.9723    0.3163 C.ar      1 <0>         0.1409
     13 C11         5.2214    7.3809    0.2565 C.ar      1 <0>        -0.0925
     14 C12         6.5081    7.9414    0.2334 C.ar      1 <0>        -0.1253
     15 C13         7.5987    7.1266    0.2678 C.ar      1 <0>        -0.0928
     16 C14         7.4552    5.7418    0.3266 C.ar      1 <0>        -0.0978
     17 C15         6.2234    5.1641    0.3509 C.ar      1 <0>        -0.0796
     18 C16         1.4356    5.5361    0.3342 C.ar      1 <0>        -0.0747
     19 C17         0.2757    6.3279    0.3008 C.ar      1 <0>        -0.1027
     20 C18        -0.9570    5.7591    0.3247 C.ar      1 <0>        -0.1019
     21 C19        -1.0844    4.3594    0.3836 C.ar      1 <0>        -0.0384
     22 C20        -2.3486    3.7469    0.4088 C.ar      1 <0>        -0.1129
     23 C21        -2.4399    2.3897    0.4607 C.ar      1 <0>        -0.1015
     24 C22        -1.2962    1.5943    0.5002 C.ar      1 <0>        -0.1131
     25 C23        -0.0548    2.1515    0.4773 C.ar      1 <0>        -0.0993
     26 C24         0.0793    3.5502    0.4183 C.ar      1 <0>        -0.0612
     27 C25         1.3442    4.1576    0.3927 C.ar      1 <0>        -0.0415
     28 O1          3.0020   10.2844    0.7017 O.3       1 <0>        -0.5417
     29 H2          7.9498   11.4753   -1.0248 H         1 <0>         0.1092
     30 H3          6.8327   10.2387   -1.6501 H         1 <0>         0.0790
     31 H4          7.0461   11.7715   -2.5294 H         1 <0>         0.0845
     32 H5          5.9773   13.0159   -0.7228 H         1 <0>         0.1348
     33 H6          5.8930   11.5518    0.2860 H         1 <0>         0.1276
     34 H7          5.4113   11.7906   -3.2701 H         1 <0>         0.1337
     35 H8          3.6382   11.6392   -3.2303 H         1 <0>         0.1284
     36 H9          3.4843   13.8840   -2.1653 H         1 <0>         0.0811
     37 H10         5.2557   14.0355   -2.2517 H         1 <0>         0.0804
     38 H11         4.2946   13.9635   -3.7481 H         1 <0>         0.1071
     39 H12         5.1985    9.6108   -1.7409 H         1 <0>         0.1463
     40 H13         3.4437    9.8857   -1.8565 H         1 <0>         0.1380
     41 H14         1.9484    8.1778    0.2217 H         1 <0>         0.1422
     42 H15         6.6326    9.0133    0.1875 H         1 <0>         0.1210
     43 H16         8.5880    7.5594    0.2493 H         1 <0>         0.1340
     44 H17         8.3358    5.1169    0.3530 H         1 <0>         0.1391
     45 H18         6.1296    4.0892    0.3969 H         1 <0>         0.1438
     46 H19         0.3656    7.4033    0.2559 H         1 <0>         0.1228
     47 H20        -1.8395    6.3811    0.2981 H         1 <0>         0.1335
     48 H21        -3.2441    4.3501    0.3825 H         1 <0>         0.1311
     49 H22        -3.4134    1.9224    0.4759 H         1 <0>         0.1286
     50 H23        -1.3965    0.5199    0.5452 H         1 <0>         0.1289
     51 H24         0.8229    1.5227    0.5047 H         1 <0>         0.1314
     52 H25         2.2389    3.5533    0.4189 H         1 <0>         0.1420
     53 H26         2.1900   10.0396    0.2370 H         1 <0>         0.3897
     54 N2          4.5580   11.5930   -1.3377 N.4       1 <0>        -0.3919
     55 H27         3.8135   12.0509   -0.7988 H         1 <0>         0.4336
@<TRIPOS>BOND
     1    1    2 1
     2    1   29 1
     3    1   30 1
     4    1   31 1
     5    2   32 1
     6    2   33 1
     7    2   54 1
     8    3    4 1
     9    3   34 1
    10    3   35 1
    11    3   54 1
    12    4   36 1
    13    4   37 1
    14    4   38 1
    15    5    6 1
    16    5   39 1
    17    5   40 1
    18    5   54 1
    19    6    7 1
    20    6    8 1
    21    6   28 1
    22    8   13 ar
    23    8    9 ar
    24    9   10 ar
    25    9   41 1
    26   10   11 ar
    27   10   18 1
    28   11   12 ar
    29   12   17 ar
    30   12   13 ar
    31   13   14 ar
    32   14   15 ar
    33   14   42 1
    34   15   16 ar
    35   15   43 1
    36   16   17 ar
    37   16   44 1
    38   17   45 1
    39   18   27 ar
    40   18   19 ar
    41   19   20 ar
    42   19   46 1
    43   20   21 ar
    44   20   47 1
    45   21   26 ar
    46   21   22 ar
    47   22   23 ar
    48   22   48 1
    49   23   24 ar
    50   23   49 1
    51   24   25 ar
    52   24   50 1
    53   25   26 ar
    54   25   51 1
    55   26   27 ar
    56   27   52 1
    57   28   53 1
    58   54   55 1
@<TRIPOS>MOLECULE
ZINC02213432
   39    42     0     0     0
SMALL
USER_CHARGES
5-(2-furyl)-3-hydroxy-7-methyl-9-(p-tolyl)-2,8,9-triazabicyclo[4.3.0]nona-1,3,5,7-tetraene-4-carbonitrile
@<TRIPOS>ATOM
      1 C1        -10.6223    0.5820    3.8497 C.3       1 <0>        -0.1173
      2 C2         -9.2006    0.8523    3.4295 C.ar      1 <0>        -0.0813
      3 C3         -8.1905    0.8543    4.3740 C.ar      1 <0>        -0.1051
      4 C4         -6.8864    1.1012    3.9920 C.ar      1 <0>        -0.1028
      5 C5         -6.5901    1.3482    2.6579 C.ar      1 <0>         0.1415
      6 C6         -7.6076    1.3515    1.7128 C.ar      1 <0>        -0.1035
      7 C7         -8.9089    1.0983    2.1003 C.ar      1 <0>        -0.1009
      8 N1         -5.2689    1.5988    2.2673 N.pl3     1 <0>        -0.3259
      9 C8         -4.6929    1.2111    1.0852 C.ar      1 <0>         0.3840
     10 C9         -3.3643    1.6721    1.1215 C.ar      1 <0>        -0.2347
     11 C10        -3.1850    2.3302    2.3586 C.2       1 <0>         0.1412
     12 N2         -4.3085    2.2884    3.0165 N.2       1 <0>        -0.2320
     13 C11        -1.9094    2.9757    2.8354 C.3       1 <0>        -0.0820
     14 C12        -2.5142    1.4151    0.0215 C.ar      1 <0>         0.2044
     15 C13        -3.0516    0.7051   -1.0726 C.ar      1 <0>        -0.1685
     16 C14        -4.3918    0.2818   -1.0169 C.ar      1 <0>         0.4519
     17 N3         -5.1486    0.5418    0.0301 N.ar      1 <0>        -0.5094
     18 O1         -4.9142   -0.4086   -2.0590 O.3       1 <0>        -0.4292
     19 C15        -2.2461    0.4209   -2.2219 C.1       1 <0>         0.2446
     20 N4         -1.6070    0.1955   -3.1337 N.1       1 <0>        -0.3778
     21 C16        -1.1173    1.8723    0.0181 C.2       1 <0>        -0.0194
     22 C17        -0.0122    1.0722    0.0095 C.2       1 <0>        -0.1529
     23 C18         1.1051    1.9258    0.0040 C.2       1 <0>        -0.2117
     24 C19         0.6371    3.1917    0.0145 C.2       1 <0>        -0.0141
     25 O2         -0.7040    3.1554    0.0261 O.3       1 <0>        -0.1541
     26 H1        -11.1108    1.5224    4.1048 H         1 <0>         0.0743
     27 H2        -11.1590    0.1044    3.0299 H         1 <0>         0.0697
     28 H3        -10.6255   -0.0765    4.7184 H         1 <0>         0.0694
     29 H4         -8.4215    0.6621    5.4114 H         1 <0>         0.1334
     30 H5         -6.0980    1.1026    4.7301 H         1 <0>         0.1339
     31 H6         -7.3811    1.5477    0.6752 H         1 <0>         0.1360
     32 H7         -9.7001    1.0963    1.3652 H         1 <0>         0.1340
     33 H8         -1.8904    4.0189    2.5200 H         1 <0>         0.0924
     34 H9         -1.8605    2.9239    3.9230 H         1 <0>         0.0879
     35 H10        -1.0549    2.4512    2.4078 H         1 <0>         0.0832
     36 H11        -4.2170   -0.5216   -2.7670 H         1 <0>         0.4156
     37 H12         0.0017   -0.0077    0.0034 H         1 <0>         0.1544
     38 H13         2.1424    1.6251   -0.0068 H         1 <0>         0.1579
     39 H14         1.2424    4.0862    0.0137 H         1 <0>         0.2131
@<TRIPOS>BOND
     1    1    2 1
     2    1   26 1
     3    1   27 1
     4    1   28 1
     5    2    7 ar
     6    2    3 ar
     7    3    4 ar
     8    3   29 1
     9    4    5 ar
    10    4   30 1
    11    5    6 ar
    12    5    8 1
    13    6    7 ar
    14    6   31 1
    15    7   32 1
    16    8   12 1
    17    8    9 1
    18    9   10 ar
    19    9   17 ar
    20   10   11 1
    21   10   14 ar
    22   11   12 2
    23   11   13 1
    24   13   33 1
    25   13   34 1
    26   13   35 1
    27   14   21 1
    28   14   15 ar
    29   15   19 1
    30   15   16 ar
    31   16   17 ar
    32   16   18 1
    33   18   36 1
    34   19   20 3
    35   21   25 1
    36   21   22 2
    37   22   23 1
    38   22   37 1
    39   23   24 2
    40   23   38 1
    41   24   25 1
    42   24   39 1
@<TRIPOS>MOLECULE
ZINC05342830
   43    45     0     0     0
SMALL
USER_CHARGES
4-(2-hydroxyethylaminomethylene)-2-(o-tolyl)isoquinoline-1,3-dione
@<TRIPOS>ATOM
      1 C1          2.8530   -1.0586    2.3778 C.3       1 <0>        -0.1193
      2 C2          3.0827   -1.6883    1.0280 C.ar      1 <0>        -0.0579
      3 C3          3.5238   -2.9944    0.9404 C.ar      1 <0>        -0.1097
      4 C4          3.7401   -3.5710   -0.2975 C.ar      1 <0>        -0.0863
      5 C5          3.5108   -2.8442   -1.4515 C.ar      1 <0>        -0.1116
      6 C6          3.0653   -1.5395   -1.3706 C.ar      1 <0>        -0.0837
      7 C7          2.8470   -0.9577   -0.1287 C.ar      1 <0>         0.0872
      8 N1          2.3954    0.3658   -0.0433 N.am      1 <0>        -0.4991
      9 C8          3.3052    1.3521    0.0137 C.2       1 <0>         0.5538
     10 O1          4.4895    1.0753   -0.0092 O.2       1 <0>        -0.4368
     11 C9          2.8942    2.7590    0.1037 C.ar      1 <0>        -0.1133
     12 C10         3.8339    3.7886    0.1633 C.ar      1 <0>        -0.0247
     13 C11         3.4081    5.0966    0.2472 C.ar      1 <0>        -0.0951
     14 C12         2.0548    5.4011    0.2725 C.ar      1 <0>        -0.0553
     15 C13         1.1092    4.3978    0.2151 C.ar      1 <0>        -0.1503
     16 C14         1.5193    3.0724    0.1307 C.ar      1 <0>        -0.0649
     17 C15         0.5484    1.9602    0.0661 C.3       1 <0>        -0.1104
     18 C16        -0.8077    2.2008    0.0829 C.2       1 <0>         0.3844
     19 C17        -2.7146    3.6790    0.7790 C.3       1 <0>         0.0716
     20 C18        -2.8604    4.9966    1.5429 C.3       1 <0>         0.0463
     21 O2         -2.2440    6.0493    0.7985 O.3       1 <0>        -0.5790
     22 C19         1.0719    0.5925   -0.0225 C.2       1 <0>         0.5511
     23 O3          0.2988   -0.3464   -0.0772 O.2       1 <0>        -0.4565
     24 H1          1.8248   -1.2380    2.6922 H         1 <0>         0.0748
     25 H2          3.5369   -1.4972    3.1044 H         1 <0>         0.0838
     26 H3          3.0310    0.0148    2.3130 H         1 <0>         0.0531
     27 H4          3.7040   -3.5644    1.8399 H         1 <0>         0.1369
     28 H5          4.0893   -4.5908   -0.3634 H         1 <0>         0.1369
     29 H6          3.6808   -3.2972   -2.4171 H         1 <0>         0.1380
     30 H7          2.8864   -0.9725   -2.2722 H         1 <0>         0.1285
     31 H8          4.8897    3.5617    0.1442 H         1 <0>         0.1599
     32 H9          4.1358    5.8934    0.2933 H         1 <0>         0.1545
     33 H10         1.7389    6.4318    0.3381 H         1 <0>         0.1523
     34 H11         0.0570    4.6409    0.2355 H         1 <0>         0.1481
     35 H12        -1.4854    1.5053   -0.3899 H         1 <0>         0.2419
     36 H13         0.3327    1.6518    0.9925 H         1 <0>         0.1628
     37 H14        -3.1194    3.7951   -0.2263 H         1 <0>         0.1336
     38 H15        -3.2604    2.8935    1.3019 H         1 <0>         0.1385
     39 H16        -3.9179    5.2208    1.6820 H         1 <0>         0.0967
     40 H17        -2.3767    4.9080    2.5157 H         1 <0>         0.0686
     41 H18        -2.2983    6.9159    1.2242 H         1 <0>         0.4052
     42 N2         -1.2463    3.3588    0.7256 N.pl3     1 <0>        -0.6096
     43 H19        -0.5665    3.9925    1.1622 H         1 <0>         0.4549
@<TRIPOS>BOND
     1    1    2 1
     2    1   24 1
     3    1   25 1
     4    1   26 1
     5    2    7 ar
     6    2    3 ar
     7    3    4 ar
     8    3   27 1
     9    4    5 ar
    10    4   28 1
    11    5    6 ar
    12    5   29 1
    13    6    7 ar
    14    6   30 1
    15    7    8 1
    16    8   22 am
    17    8    9 am
    18    9   10 2
    19    9   11 1
    20   11   16 ar
    21   11   12 ar
    22   12   13 ar
    23   12   31 1
    24   13   14 ar
    25   13   32 1
    26   14   15 ar
    27   14   33 1
    28   15   16 ar
    29   15   34 1
    30   16   17 1
    31   17   22 1
    32   17   36 1
    33   17   18 1
    34   18   35 1
    35   18   42 2
    36   19   20 1
    37   19   37 1
    38   19   38 1
    39   19   42 1
    40   20   21 1
    41   20   39 1
    42   20   40 1
    43   21   41 1
    44   22   23 2
    45   42   43 1
@<TRIPOS>MOLECULE
ZINC05342831
   37    39     0     0     0
SMALL
USER_CHARGES
4-hydroxy-3-(morpholinocarbonylmethyl)-1H-quinolin-2-one
@<TRIPOS>ATOM
      1 C1         -5.7727   -1.7512    2.2609 C.ar      1 <0>        -0.1395
      2 C2         -6.1935   -2.2444    1.0337 C.ar      1 <0>        -0.0769
      3 C3         -5.5859   -1.8357   -0.1340 C.ar      1 <0>        -0.1142
      4 C4         -4.5480   -0.9108   -0.0845 C.ar      1 <0>         0.2002
      5 C5         -4.1251   -0.4142    1.1608 C.ar      1 <0>        -0.1986
      6 C6         -4.7509   -0.8464    2.3325 C.ar      1 <0>        -0.0828
      7 C7         -3.0239    0.5575    1.2005 C.ar      1 <0>         0.2558
      8 C8         -2.4534    0.9402    0.0198 C.ar      1 <0>        -0.2950
      9 C9         -2.9262    0.4182   -1.1941 C.ar      1 <0>         0.4447
     10 O1         -2.4055    0.7773   -2.2369 O.3       1 <0>        -0.3915
     11 N1         -3.9294   -0.4752   -1.2383 N.ar      1 <0>        -0.5550
     12 H1         -1.6819    1.4382   -2.0379 H         1 <0>         0.4153
     13 C10        -1.3172    1.9302    0.0202 C.3       1 <0>        -0.0902
     14 C11        -0.0051    1.1890    0.0069 C.2       1 <0>         0.5101
     15 O2          0.0063   -0.0237   -0.0022 O.2       1 <0>        -0.5200
     16 N2          1.1557    1.8739   -0.0007 N.am      1 <0>        -0.6177
     17 C12         1.1670    3.3453    0.0038 C.3       1 <0>         0.0680
     18 C13         2.1078    3.8138    1.1256 C.3       1 <0>         0.0459
     19 O3          3.3753    3.1701    0.9740 O.3       1 <0>        -0.3769
     20 C14         3.3273    1.7466    1.0976 C.3       1 <0>         0.0475
     21 C15         2.4490    1.1723   -0.0199 C.3       1 <0>         0.0756
     22 O4         -2.5856    1.0608    2.3775 O.3       1 <0>        -0.4561
     23 H2         -6.2565   -2.0855    3.1667 H         1 <0>         0.1297
     24 H3         -7.0021   -2.9593    0.9937 H         1 <0>         0.1332
     25 H4         -5.9174   -2.2283   -1.0839 H         1 <0>         0.1388
     26 H5         -4.4284   -0.4676    3.2911 H         1 <0>         0.1226
     27 H6         -1.3754    2.5497    0.9152 H         1 <0>         0.1224
     28 H7         -1.3861    2.5628   -0.8646 H         1 <0>         0.1011
     29 H8          1.5261    3.7126   -0.9575 H         1 <0>         0.0846
     30 H9          0.1599    3.7197    0.1875 H         1 <0>         0.0962
     31 H10         1.6811    3.5540    2.0944 H         1 <0>         0.0582
     32 H11         2.2382    4.8941    1.0622 H         1 <0>         0.1098
     33 H12         2.9050    1.4793    2.0663 H         1 <0>         0.0568
     34 H13         4.3348    1.3391    1.0148 H         1 <0>         0.1097
     35 H14         2.2913    0.1069    0.1480 H         1 <0>         0.1028
     36 H15         2.9350    1.3245   -0.9836 H         1 <0>         0.0795
     37 H16        -3.0582    0.7227    3.1503 H         1 <0>         0.4063
@<TRIPOS>BOND
     1    1    6 ar
     2    1    2 ar
     3    1   23 1
     4    2    3 ar
     5    2   24 1
     6    3    4 ar
     7    3   25 1
     8    4    5 ar
     9    4   11 ar
    10    5    6 ar
    11    5    7 ar
    12    6   26 1
    13    7   22 1
    14    7    8 ar
    15    8   13 1
    16    8    9 ar
    17    9   11 ar
    18    9   10 1
    19   10   12 1
    20   13   14 1
    21   13   27 1
    22   13   28 1
    23   14   15 2
    24   14   16 am
    25   16   21 1
    26   16   17 1
    27   17   18 1
    28   17   29 1
    29   17   30 1
    30   18   19 1
    31   18   31 1
    32   18   32 1
    33   19   20 1
    34   20   21 1
    35   20   33 1
    36   20   34 1
    37   21   35 1
    38   21   36 1
    39   22   37 1
@<TRIPOS>MOLECULE
ZINC02213517
   55    58     0     0     0
SMALL
USER_CHARGES
2-diethylamino-1-[2-(2-naphthyl)-4-quinolyl]-ethanol
@<TRIPOS>ATOM
      1 C1          7.0053   11.3096   -1.5429 C.3       1 <0>        -0.1912
      2 C2          5.8645   11.9318   -0.7352 C.3       1 <0>        -0.0175
      3 C3          4.5056   12.0745   -2.7341 C.3       1 <0>        -0.0127
      4 C4          4.3757   13.5990   -2.7241 C.3       1 <0>        -0.1881
      5 C5          4.3482   10.1304   -1.2995 C.3       1 <0>        -0.0450
      6 C6          4.1837    9.6933    0.1575 C.3       1 <0>         0.1329
      7 H1          5.0504   10.0170    0.7339 H         1 <0>         0.1364
      8 C7          4.0699    8.1920    0.2218 C.ar      1 <0>        -0.0806
      9 C8          2.8501    7.5838    0.2474 C.ar      1 <0>        -0.1376
     10 C9          2.7687    6.1837    0.3069 C.ar      1 <0>         0.2138
     11 N1          3.8520    5.4313    0.3445 N.ar      1 <0>        -0.4543
     12 C10         5.0726    5.9723    0.3163 C.ar      1 <0>         0.1409
     13 C11         5.2214    7.3809    0.2565 C.ar      1 <0>        -0.0925
     14 C12         6.5081    7.9414    0.2334 C.ar      1 <0>        -0.1253
     15 C13         7.5987    7.1266    0.2678 C.ar      1 <0>        -0.0928
     16 C14         7.4552    5.7418    0.3266 C.ar      1 <0>        -0.0978
     17 C15         6.2234    5.1641    0.3509 C.ar      1 <0>        -0.0796
     18 C16         1.4356    5.5361    0.3342 C.ar      1 <0>        -0.0747
     19 C17         0.2757    6.3279    0.3008 C.ar      1 <0>        -0.1027
     20 C18        -0.9570    5.7591    0.3247 C.ar      1 <0>        -0.1019
     21 C19        -1.0844    4.3594    0.3836 C.ar      1 <0>        -0.0384
     22 C20        -2.3486    3.7469    0.4088 C.ar      1 <0>        -0.1129
     23 C21        -2.4399    2.3897    0.4607 C.ar      1 <0>        -0.1015
     24 C22        -1.2962    1.5943    0.5002 C.ar      1 <0>        -0.1131
     25 C23        -0.0548    2.1515    0.4773 C.ar      1 <0>        -0.0993
     26 C24         0.0793    3.5502    0.4183 C.ar      1 <0>        -0.0612
     27 C25         1.3442    4.1576    0.3927 C.ar      1 <0>        -0.0415
     28 O1          3.0020   10.2844    0.7017 O.3       1 <0>        -0.5417
     29 H2          7.9498   11.4753   -1.0248 H         1 <0>         0.1092
     30 H3          6.8327   10.2387   -1.6501 H         1 <0>         0.0790
     31 H4          7.0461   11.7715   -2.5294 H         1 <0>         0.0845
     32 H5          5.9773   13.0159   -0.7228 H         1 <0>         0.1348
     33 H6          5.8930   11.5518    0.2860 H         1 <0>         0.1276
     34 H7          5.4113   11.7906   -3.2701 H         1 <0>         0.1337
     35 H8          3.6382   11.6392   -3.2303 H         1 <0>         0.1284
     36 H9          3.4843   13.8840   -2.1653 H         1 <0>         0.0811
     37 H10         5.2557   14.0355   -2.2517 H         1 <0>         0.0804
     38 H11         4.2946   13.9635   -3.7481 H         1 <0>         0.1071
     39 H12         5.1985    9.6108   -1.7409 H         1 <0>         0.1463
     40 H13         3.4437    9.8857   -1.8565 H         1 <0>         0.1380
     41 H14         1.9484    8.1778    0.2217 H         1 <0>         0.1422
     42 H15         6.6326    9.0133    0.1875 H         1 <0>         0.1210
     43 H16         8.5880    7.5594    0.2493 H         1 <0>         0.1340
     44 H17         8.3358    5.1169    0.3530 H         1 <0>         0.1391
     45 H18         6.1296    4.0892    0.3969 H         1 <0>         0.1438
     46 H19         0.3656    7.4033    0.2559 H         1 <0>         0.1228
     47 H20        -1.8395    6.3811    0.2981 H         1 <0>         0.1335
     48 H21        -3.2441    4.3501    0.3825 H         1 <0>         0.1311
     49 H22        -3.4134    1.9224    0.4759 H         1 <0>         0.1286
     50 H23        -1.3965    0.5199    0.5452 H         1 <0>         0.1289
     51 H24         0.8229    1.5227    0.5047 H         1 <0>         0.1314
     52 H25         2.2389    3.5533    0.4189 H         1 <0>         0.1420
     53 H26         2.1900   10.0396    0.2370 H         1 <0>         0.3897
     54 N2          4.5580   11.5930   -1.3377 N.4       1 <0>        -0.3919
     55 H27         3.8135   12.0509   -0.7988 H         1 <0>         0.4336
@<TRIPOS>BOND
     1    1    2 1
     2    1   29 1
     3    1   30 1
     4    1   31 1
     5    2   32 1
     6    2   33 1
     7    2   54 1
     8    3    4 1
     9    3   34 1
    10    3   35 1
    11    3   54 1
    12    4   36 1
    13    4   37 1
    14    4   38 1
    15    5    6 1
    16    5   39 1
    17    5   40 1
    18    5   54 1
    19    6    7 1
    20    6    8 1
    21    6   28 1
    22    8   13 ar
    23    8    9 ar
    24    9   10 ar
    25    9   41 1
    26   10   11 ar
    27   10   18 1
    28   11   12 ar
    29   12   17 ar
    30   12   13 ar
    31   13   14 ar
    32   14   15 ar
    33   14   42 1
    34   15   16 ar
    35   15   43 1
    36   16   17 ar
    37   16   44 1
    38   17   45 1
    39   18   27 ar
    40   18   19 ar
    41   19   20 ar
    42   19   46 1
    43   20   21 ar
    44   20   47 1
    45   21   26 ar
    46   21   22 ar
    47   22   23 ar
    48   22   48 1
    49   23   24 ar
    50   23   49 1
    51   24   25 ar
    52   24   50 1
    53   25   26 ar
    54   25   51 1
    55   26   27 ar
    56   27   52 1
    57   28   53 1
    58   54   55 1
@<TRIPOS>MOLECULE
ZINC02213526
   55    58     0     0     0
SMALL
USER_CHARGES
2-diethylamino-1-[2-(2-naphthyl)-4-quinolyl]-ethanol
@<TRIPOS>ATOM
      1 C1          7.0053   11.3096   -1.5429 C.3       1 <0>        -0.1912
      2 C2          5.8645   11.9318   -0.7352 C.3       1 <0>        -0.0175
      3 C3          4.5056   12.0745   -2.7341 C.3       1 <0>        -0.0127
      4 C4          4.3757   13.5990   -2.7241 C.3       1 <0>        -0.1881
      5 C5          4.3482   10.1304   -1.2995 C.3       1 <0>        -0.0450
      6 C6          4.1837    9.6933    0.1575 C.3       1 <0>         0.1329
      7 H1          5.0504   10.0170    0.7339 H         1 <0>         0.1364
      8 C7          4.0699    8.1920    0.2218 C.ar      1 <0>        -0.0806
      9 C8          2.8501    7.5838    0.2474 C.ar      1 <0>        -0.1376
     10 C9          2.7687    6.1837    0.3069 C.ar      1 <0>         0.2138
     11 N1          3.8520    5.4313    0.3445 N.ar      1 <0>        -0.4543
     12 C10         5.0726    5.9723    0.3163 C.ar      1 <0>         0.1409
     13 C11         5.2214    7.3809    0.2565 C.ar      1 <0>        -0.0925
     14 C12         6.5081    7.9414    0.2334 C.ar      1 <0>        -0.1253
     15 C13         7.5987    7.1266    0.2678 C.ar      1 <0>        -0.0928
     16 C14         7.4552    5.7418    0.3266 C.ar      1 <0>        -0.0978
     17 C15         6.2234    5.1641    0.3509 C.ar      1 <0>        -0.0796
     18 C16         1.4356    5.5361    0.3342 C.ar      1 <0>        -0.0747
     19 C17         0.2757    6.3279    0.3008 C.ar      1 <0>        -0.1027
     20 C18        -0.9570    5.7591    0.3247 C.ar      1 <0>        -0.1019
     21 C19        -1.0844    4.3594    0.3836 C.ar      1 <0>        -0.0384
     22 C20        -2.3486    3.7469    0.4088 C.ar      1 <0>        -0.1129
     23 C21        -2.4399    2.3897    0.4607 C.ar      1 <0>        -0.1015
     24 C22        -1.2962    1.5943    0.5002 C.ar      1 <0>        -0.1131
     25 C23        -0.0548    2.1515    0.4773 C.ar      1 <0>        -0.0993
     26 C24         0.0793    3.5502    0.4183 C.ar      1 <0>        -0.0612
     27 C25         1.3442    4.1576    0.3927 C.ar      1 <0>        -0.0415
     28 O1          3.0020   10.2844    0.7017 O.3       1 <0>        -0.5417
     29 H2          7.9498   11.4753   -1.0248 H         1 <0>         0.1092
     30 H3          6.8327   10.2387   -1.6501 H         1 <0>         0.0790
     31 H4          7.0461   11.7715   -2.5294 H         1 <0>         0.0845
     32 H5          5.9773   13.0159   -0.7228 H         1 <0>         0.1348
     33 H6          5.8930   11.5518    0.2860 H         1 <0>         0.1276
     34 H7          5.4113   11.7906   -3.2701 H         1 <0>         0.1337
     35 H8          3.6382   11.6392   -3.2303 H         1 <0>         0.1284
     36 H9          3.4843   13.8840   -2.1653 H         1 <0>         0.0811
     37 H10         5.2557   14.0355   -2.2517 H         1 <0>         0.0804
     38 H11         4.2946   13.9635   -3.7481 H         1 <0>         0.1071
     39 H12         5.1985    9.6108   -1.7409 H         1 <0>         0.1463
     40 H13         3.4437    9.8857   -1.8565 H         1 <0>         0.1380
     41 H14         1.9484    8.1778    0.2217 H         1 <0>         0.1422
     42 H15         6.6326    9.0133    0.1875 H         1 <0>         0.1210
     43 H16         8.5880    7.5594    0.2493 H         1 <0>         0.1340
     44 H17         8.3358    5.1169    0.3530 H         1 <0>         0.1391
     45 H18         6.1296    4.0892    0.3969 H         1 <0>         0.1438
     46 H19         0.3656    7.4033    0.2559 H         1 <0>         0.1228
     47 H20        -1.8395    6.3811    0.2981 H         1 <0>         0.1335
     48 H21        -3.2441    4.3501    0.3825 H         1 <0>         0.1311
     49 H22        -3.4134    1.9224    0.4759 H         1 <0>         0.1286
     50 H23        -1.3965    0.5199    0.5452 H         1 <0>         0.1289
     51 H24         0.8229    1.5227    0.5047 H         1 <0>         0.1314
     52 H25         2.2389    3.5533    0.4189 H         1 <0>         0.1420
     53 H26         2.1900   10.0396    0.2370 H         1 <0>         0.3897
     54 N2          4.5580   11.5930   -1.3377 N.4       1 <0>        -0.3919
     55 H27         3.8135   12.0509   -0.7988 H         1 <0>         0.4336
@<TRIPOS>BOND
     1    1    2 1
     2    1   29 1
     3    1   30 1
     4    1   31 1
     5    2   32 1
     6    2   33 1
     7    2   54 1
     8    3    4 1
     9    3   34 1
    10    3   35 1
    11    3   54 1
    12    4   36 1
    13    4   37 1
    14    4   38 1
    15    5    6 1
    16    5   39 1
    17    5   40 1
    18    5   54 1
    19    6    7 1
    20    6    8 1
    21    6   28 1
    22    8   13 ar
    23    8    9 ar
    24    9   10 ar
    25    9   41 1
    26   10   11 ar
    27   10   18 1
    28   11   12 ar
    29   12   17 ar
    30   12   13 ar
    31   13   14 ar
    32   14   15 ar
    33   14   42 1
    34   15   16 ar
    35   15   43 1
    36   16   17 ar
    37   16   44 1
    38   17   45 1
    39   18   27 ar
    40   18   19 ar
    41   19   20 ar
    42   19   46 1
    43   20   21 ar
    44   20   47 1
    45   21   26 ar
    46   21   22 ar
    47   22   23 ar
    48   22   48 1
    49   23   24 ar
    50   23   49 1
    51   24   25 ar
    52   24   50 1
    53   25   26 ar
    54   25   51 1
    55   26   27 ar
    56   27   52 1
    57   28   53 1
    58   54   55 1
@<TRIPOS>MOLECULE
ZINC02213560
   55    58     0     0     0
SMALL
USER_CHARGES
2-diethylamino-1-[2-(2-naphthyl)-4-quinolyl]-ethanol
@<TRIPOS>ATOM
      1 C1          7.0053   11.3096   -1.5429 C.3       1 <0>        -0.1912
      2 C2          5.8645   11.9318   -0.7352 C.3       1 <0>        -0.0175
      3 C3          4.5056   12.0745   -2.7341 C.3       1 <0>        -0.0127
      4 C4          4.3757   13.5990   -2.7241 C.3       1 <0>        -0.1881
      5 C5          4.3482   10.1304   -1.2995 C.3       1 <0>        -0.0450
      6 C6          4.1837    9.6933    0.1575 C.3       1 <0>         0.1329
      7 H1          5.0504   10.0170    0.7339 H         1 <0>         0.1364
      8 C7          4.0699    8.1920    0.2218 C.ar      1 <0>        -0.0806
      9 C8          2.8501    7.5838    0.2474 C.ar      1 <0>        -0.1376
     10 C9          2.7687    6.1837    0.3069 C.ar      1 <0>         0.2138
     11 N1          3.8520    5.4313    0.3445 N.ar      1 <0>        -0.4543
     12 C10         5.0726    5.9723    0.3163 C.ar      1 <0>         0.1409
     13 C11         5.2214    7.3809    0.2565 C.ar      1 <0>        -0.0925
     14 C12         6.5081    7.9414    0.2334 C.ar      1 <0>        -0.1253
     15 C13         7.5987    7.1266    0.2678 C.ar      1 <0>        -0.0928
     16 C14         7.4552    5.7418    0.3266 C.ar      1 <0>        -0.0978
     17 C15         6.2234    5.1641    0.3509 C.ar      1 <0>        -0.0796
     18 C16         1.4356    5.5361    0.3342 C.ar      1 <0>        -0.0747
     19 C17         0.2757    6.3279    0.3008 C.ar      1 <0>        -0.1027
     20 C18        -0.9570    5.7591    0.3247 C.ar      1 <0>        -0.1019
     21 C19        -1.0844    4.3594    0.3836 C.ar      1 <0>        -0.0384
     22 C20        -2.3486    3.7469    0.4088 C.ar      1 <0>        -0.1129
     23 C21        -2.4399    2.3897    0.4607 C.ar      1 <0>        -0.1015
     24 C22        -1.2962    1.5943    0.5002 C.ar      1 <0>        -0.1131
     25 C23        -0.0548    2.1515    0.4773 C.ar      1 <0>        -0.0993
     26 C24         0.0793    3.5502    0.4183 C.ar      1 <0>        -0.0612
     27 C25         1.3442    4.1576    0.3927 C.ar      1 <0>        -0.0415
     28 O1          3.0020   10.2844    0.7017 O.3       1 <0>        -0.5417
     29 H2          7.9498   11.4753   -1.0248 H         1 <0>         0.1092
     30 H3          6.8327   10.2387   -1.6501 H         1 <0>         0.0790
     31 H4          7.0461   11.7715   -2.5294 H         1 <0>         0.0845
     32 H5          5.9773   13.0159   -0.7228 H         1 <0>         0.1348
     33 H6          5.8930   11.5518    0.2860 H         1 <0>         0.1276
     34 H7          5.4113   11.7906   -3.2701 H         1 <0>         0.1337
     35 H8          3.6382   11.6392   -3.2303 H         1 <0>         0.1284
     36 H9          3.4843   13.8840   -2.1653 H         1 <0>         0.0811
     37 H10         5.2557   14.0355   -2.2517 H         1 <0>         0.0804
     38 H11         4.2946   13.9635   -3.7481 H         1 <0>         0.1071
     39 H12         5.1985    9.6108   -1.7409 H         1 <0>         0.1463
     40 H13         3.4437    9.8857   -1.8565 H         1 <0>         0.1380
     41 H14         1.9484    8.1778    0.2217 H         1 <0>         0.1422
     42 H15         6.6326    9.0133    0.1875 H         1 <0>         0.1210
     43 H16         8.5880    7.5594    0.2493 H         1 <0>         0.1340
     44 H17         8.3358    5.1169    0.3530 H         1 <0>         0.1391
     45 H18         6.1296    4.0892    0.3969 H         1 <0>         0.1438
     46 H19         0.3656    7.4033    0.2559 H         1 <0>         0.1228
     47 H20        -1.8395    6.3811    0.2981 H         1 <0>         0.1335
     48 H21        -3.2441    4.3501    0.3825 H         1 <0>         0.1311
     49 H22        -3.4134    1.9224    0.4759 H         1 <0>         0.1286
     50 H23        -1.3965    0.5199    0.5452 H         1 <0>         0.1289
     51 H24         0.8229    1.5227    0.5047 H         1 <0>         0.1314
     52 H25         2.2389    3.5533    0.4189 H         1 <0>         0.1420
     53 H26         2.1900   10.0396    0.2370 H         1 <0>         0.3897
     54 N2          4.5580   11.5930   -1.3377 N.4       1 <0>        -0.3919
     55 H27         3.8135   12.0509   -0.7988 H         1 <0>         0.4336
@<TRIPOS>BOND
     1    1    2 1
     2    1   29 1
     3    1   30 1
     4    1   31 1
     5    2   32 1
     6    2   33 1
     7    2   54 1
     8    3    4 1
     9    3   34 1
    10    3   35 1
    11    3   54 1
    12    4   36 1
    13    4   37 1
    14    4   38 1
    15    5    6 1
    16    5   39 1
    17    5   40 1
    18    5   54 1
    19    6    7 1
    20    6    8 1
    21    6   28 1
    22    8   13 ar
    23    8    9 ar
    24    9   10 ar
    25    9   41 1
    26   10   11 ar
    27   10   18 1
    28   11   12 ar
    29   12   17 ar
    30   12   13 ar
    31   13   14 ar
    32   14   15 ar
    33   14   42 1
    34   15   16 ar
    35   15   43 1
    36   16   17 ar
    37   16   44 1
    38   17   45 1
    39   18   27 ar
    40   18   19 ar
    41   19   20 ar
    42   19   46 1
    43   20   21 ar
    44   20   47 1
    45   21   26 ar
    46   21   22 ar
    47   22   23 ar
    48   22   48 1
    49   23   24 ar
    50   23   49 1
    51   24   25 ar
    52   24   50 1
    53   25   26 ar
    54   25   51 1
    55   26   27 ar
    56   27   52 1
    57   28   53 1
    58   54   55 1
@<TRIPOS>MOLECULE
ZINC05342859
   46    48     0     0     0
SMALL
USER_CHARGES
2-(3,5-dimethylphenyl)-4-(2-hydroxyethylaminomethylene)isoquinoline-1,3-dione
@<TRIPOS>ATOM
      1 C1         -1.8122   -6.3082    2.0432 C.3       1 <0>        -0.1195
      2 C2         -1.8984   -5.3074    0.9198 C.ar      1 <0>        -0.0644
      3 C3         -2.9048   -5.4121   -0.0227 C.ar      1 <0>        -0.0978
      4 C4         -2.9869   -4.4960   -1.0553 C.ar      1 <0>        -0.0660
      5 C5         -2.0634   -3.4733   -1.1481 C.ar      1 <0>        -0.1005
      6 C6         -1.0517   -3.3655   -0.2033 C.ar      1 <0>         0.0976
      7 C7         -0.9685   -4.2903    0.8291 C.ar      1 <0>        -0.0940
      8 N1         -0.1135   -2.3291   -0.2946 N.am      1 <0>        -0.4998
      9 C8          1.1697   -2.6442   -0.5356 C.2       1 <0>         0.5542
     10 O1          1.4841   -3.8117   -0.6677 O.2       1 <0>        -0.4368
     11 C9          2.1992   -1.6027   -0.6428 C.ar      1 <0>        -0.1122
     12 C10         3.5340   -1.9229   -0.8934 C.ar      1 <0>        -0.0227
     13 C11         4.4709   -0.9165   -0.9866 C.ar      1 <0>        -0.0945
     14 C12         4.1015    0.4119   -0.8338 C.ar      1 <0>        -0.0568
     15 C13         2.7869    0.7502   -0.5859 C.ar      1 <0>        -0.1511
     16 C14         1.8275   -0.2509   -0.4886 C.ar      1 <0>        -0.0608
     17 C15         0.4064    0.0564   -0.2240 C.3       1 <0>        -0.1119
     18 C16        -0.0202    1.3562   -0.0634 C.2       1 <0>         0.3853
     19 C17         0.3026    3.7959   -0.5630 C.3       1 <0>         0.0714
     20 C18         1.3021    4.6291   -1.3679 C.3       1 <0>         0.0461
     21 O2          1.1852    4.3042   -2.7547 O.3       1 <0>        -0.5788
     22 C19        -0.5355   -1.0647   -0.1314 C.2       1 <0>         0.5514
     23 O3         -1.7124   -0.8462    0.0905 O.2       1 <0>        -0.4554
     24 C20        -4.0850   -4.6141   -2.0807 C.3       1 <0>        -0.1188
     25 H1         -1.1875   -7.1468    1.7356 H         1 <0>         0.0790
     26 H2         -1.3749   -5.8323    2.9210 H         1 <0>         0.0703
     27 H3         -2.8116   -6.6693    2.2856 H         1 <0>         0.0750
     28 H4         -3.6280   -6.2112    0.0476 H         1 <0>         0.1353
     29 H5         -2.1279   -2.7583   -1.9550 H         1 <0>         0.1228
     30 H6         -0.1800   -4.2116    1.5630 H         1 <0>         0.1276
     31 H7          3.8312   -2.9541   -1.0142 H         1 <0>         0.1607
     32 H8          5.5039   -1.1648   -1.1803 H         1 <0>         0.1551
     33 H9          4.8489    1.1879   -0.9099 H         1 <0>         0.1518
     34 H10         2.5053    1.7862   -0.4679 H         1 <0>         0.1398
     35 H11        -0.8933    1.5679    0.5360 H         1 <0>         0.2420
     36 H12        -0.0737    0.1859   -1.0916 H         1 <0>         0.1655
     37 H13        -0.7006    3.9468   -0.9618 H         1 <0>         0.1318
     38 H14         0.3287    4.1063    0.4816 H         1 <0>         0.1405
     39 H15         1.0909    5.6887   -1.2240 H         1 <0>         0.0965
     40 H16         2.3143    4.4108   -1.0276 H         1 <0>         0.0685
     41 H17         1.7907    4.7960   -3.3261 H         1 <0>         0.4050
     42 H18        -3.7458   -5.2403   -2.9058 H         1 <0>         0.0778
     43 H19        -4.9648   -5.0641   -1.6207 H         1 <0>         0.0755
     44 H20        -4.3387   -3.6231   -2.4571 H         1 <0>         0.0689
     45 N2          0.7161    2.3565   -0.6989 N.pl3     1 <0>        -0.6092
     46 H21         1.5402    2.1098   -1.2595 H         1 <0>         0.4555
@<TRIPOS>BOND
     1    1    2 1
     2    1   25 1
     3    1   26 1
     4    1   27 1
     5    2    7 ar
     6    2    3 ar
     7    3    4 ar
     8    3   28 1
     9    4    5 ar
    10    4   24 1
    11    5    6 ar
    12    5   29 1
    13    6    7 ar
    14    6    8 1
    15    7   30 1
    16    8   22 am
    17    8    9 am
    18    9   10 2
    19    9   11 1
    20   11   16 ar
    21   11   12 ar
    22   12   13 ar
    23   12   31 1
    24   13   14 ar
    25   13   32 1
    26   14   15 ar
    27   14   33 1
    28   15   16 ar
    29   15   34 1
    30   16   17 1
    31   17   22 1
    32   17   36 1
    33   17   18 1
    34   18   35 1
    35   18   45 2
    36   19   20 1
    37   19   37 1
    38   19   38 1
    39   19   45 1
    40   20   21 1
    41   20   39 1
    42   20   40 1
    43   21   41 1
    44   22   23 2
    45   24   42 1
    46   24   43 1
    47   24   44 1
    48   45   46 1
@<TRIPOS>MOLECULE
ZINC02213811
   55    58     0     0     0
SMALL
USER_CHARGES
2-diethylamino-1-[2-(2-naphthyl)-4-quinolyl]-ethanol
@<TRIPOS>ATOM
      1 C1          7.0053   11.3096   -1.5429 C.3       1 <0>        -0.1912
      2 C2          5.8645   11.9318   -0.7352 C.3       1 <0>        -0.0175
      3 C3          4.5056   12.0745   -2.7341 C.3       1 <0>        -0.0127
      4 C4          4.3757   13.5990   -2.7241 C.3       1 <0>        -0.1881
      5 C5          4.3482   10.1304   -1.2995 C.3       1 <0>        -0.0450
      6 C6          4.1837    9.6933    0.1575 C.3       1 <0>         0.1329
      7 H1          5.0504   10.0170    0.7339 H         1 <0>         0.1364
      8 C7          4.0699    8.1920    0.2218 C.ar      1 <0>        -0.0806
      9 C8          2.8501    7.5838    0.2474 C.ar      1 <0>        -0.1376
     10 C9          2.7687    6.1837    0.3069 C.ar      1 <0>         0.2138
     11 N1          3.8520    5.4313    0.3445 N.ar      1 <0>        -0.4543
     12 C10         5.0726    5.9723    0.3163 C.ar      1 <0>         0.1409
     13 C11         5.2214    7.3809    0.2565 C.ar      1 <0>        -0.0925
     14 C12         6.5081    7.9414    0.2334 C.ar      1 <0>        -0.1253
     15 C13         7.5987    7.1266    0.2678 C.ar      1 <0>        -0.0928
     16 C14         7.4552    5.7418    0.3266 C.ar      1 <0>        -0.0978
     17 C15         6.2234    5.1641    0.3509 C.ar      1 <0>        -0.0796
     18 C16         1.4356    5.5361    0.3342 C.ar      1 <0>        -0.0747
     19 C17         0.2757    6.3279    0.3008 C.ar      1 <0>        -0.1027
     20 C18        -0.9570    5.7591    0.3247 C.ar      1 <0>        -0.1019
     21 C19        -1.0844    4.3594    0.3836 C.ar      1 <0>        -0.0384
     22 C20        -2.3486    3.7469    0.4088 C.ar      1 <0>        -0.1129
     23 C21        -2.4399    2.3897    0.4607 C.ar      1 <0>        -0.1015
     24 C22        -1.2962    1.5943    0.5002 C.ar      1 <0>        -0.1131
     25 C23        -0.0548    2.1515    0.4773 C.ar      1 <0>        -0.0993
     26 C24         0.0793    3.5502    0.4183 C.ar      1 <0>        -0.0612
     27 C25         1.3442    4.1576    0.3927 C.ar      1 <0>        -0.0415
     28 O1          3.0020   10.2844    0.7017 O.3       1 <0>        -0.5417
     29 H2          7.9498   11.4753   -1.0248 H         1 <0>         0.1092
     30 H3          6.8327   10.2387   -1.6501 H         1 <0>         0.0790
     31 H4          7.0461   11.7715   -2.5294 H         1 <0>         0.0845
     32 H5          5.9773   13.0159   -0.7228 H         1 <0>         0.1348
     33 H6          5.8930   11.5518    0.2860 H         1 <0>         0.1276
     34 H7          5.4113   11.7906   -3.2701 H         1 <0>         0.1337
     35 H8          3.6382   11.6392   -3.2303 H         1 <0>         0.1284
     36 H9          3.4843   13.8840   -2.1653 H         1 <0>         0.0811
     37 H10         5.2557   14.0355   -2.2517 H         1 <0>         0.0804
     38 H11         4.2946   13.9635   -3.7481 H         1 <0>         0.1071
     39 H12         5.1985    9.6108   -1.7409 H         1 <0>         0.1463
     40 H13         3.4437    9.8857   -1.8565 H         1 <0>         0.1380
     41 H14         1.9484    8.1778    0.2217 H         1 <0>         0.1422
     42 H15         6.6326    9.0133    0.1875 H         1 <0>         0.1210
     43 H16         8.5880    7.5594    0.2493 H         1 <0>         0.1340
     44 H17         8.3358    5.1169    0.3530 H         1 <0>         0.1391
     45 H18         6.1296    4.0892    0.3969 H         1 <0>         0.1438
     46 H19         0.3656    7.4033    0.2559 H         1 <0>         0.1228
     47 H20        -1.8395    6.3811    0.2981 H         1 <0>         0.1335
     48 H21        -3.2441    4.3501    0.3825 H         1 <0>         0.1311
     49 H22        -3.4134    1.9224    0.4759 H         1 <0>         0.1286
     50 H23        -1.3965    0.5199    0.5452 H         1 <0>         0.1289
     51 H24         0.8229    1.5227    0.5047 H         1 <0>         0.1314
     52 H25         2.2389    3.5533    0.4189 H         1 <0>         0.1420
     53 H26         2.1900   10.0396    0.2370 H         1 <0>         0.3897
     54 N2          4.5580   11.5930   -1.3377 N.4       1 <0>        -0.3919
     55 H27         3.8135   12.0509   -0.7988 H         1 <0>         0.4336
@<TRIPOS>BOND
     1    1    2 1
     2    1   29 1
     3    1   30 1
     4    1   31 1
     5    2   32 1
     6    2   33 1
     7    2   54 1
     8    3    4 1
     9    3   34 1
    10    3   35 1
    11    3   54 1
    12    4   36 1
    13    4   37 1
    14    4   38 1
    15    5    6 1
    16    5   39 1
    17    5   40 1
    18    5   54 1
    19    6    7 1
    20    6    8 1
    21    6   28 1
    22    8   13 ar
    23    8    9 ar
    24    9   10 ar
    25    9   41 1
    26   10   11 ar
    27   10   18 1
    28   11   12 ar
    29   12   17 ar
    30   12   13 ar
    31   13   14 ar
    32   14   15 ar
    33   14   42 1
    34   15   16 ar
    35   15   43 1
    36   16   17 ar
    37   16   44 1
    38   17   45 1
    39   18   27 ar
    40   18   19 ar
    41   19   20 ar
    42   19   46 1
    43   20   21 ar
    44   20   47 1
    45   21   26 ar
    46   21   22 ar
    47   22   23 ar
    48   22   48 1
    49   23   24 ar
    50   23   49 1
    51   24   25 ar
    52   24   50 1
    53   25   26 ar
    54   25   51 1
    55   26   27 ar
    56   27   52 1
    57   28   53 1
    58   54   55 1
@<TRIPOS>MOLECULE
ZINC05342864
   27    29     0     0     0
SMALL
USER_CHARGES
hydroxymethyl-methyl-BLAHdione
@<TRIPOS>ATOM
      1 C1         -0.6773    5.9577   -6.1323 C.3       1 <0>         0.0857
      2 N1         -0.4245    4.5165   -6.0603 N.am      1 <0>        -0.5064
      3 C2         -0.4185    3.8755   -4.8318 C.2       1 <0>         0.3540
      4 C3         -0.1782    2.5068   -4.7916 C.2       1 <0>        -0.1333
      5 C4          0.0548    1.8148   -5.9947 C.2       1 <0>         0.5990
      6 O1          0.2702    0.6155   -5.9834 O.2       1 <0>        -0.5147
      7 N2          0.0379    2.4934   -7.1605 N.am      1 <0>        -0.6536
      8 H1          0.2031    2.0048   -8.0172 H         1 <0>         0.4486
      9 C5         -0.1977    3.8165   -7.1877 C.2       1 <0>         0.7129
     10 O2         -0.2060    4.3955   -8.2570 O.2       1 <0>        -0.5282
     11 N3         -0.2362    2.1449   -3.4569 N.pl3     1 <0>        -0.4613
     12 C6         -0.4911    3.2628   -2.7416 C.2       1 <0>         0.4556
     13 N4         -0.6028    4.2846   -3.5767 N.2       1 <0>        -0.4732
     14 O3         -0.5482    3.0060   -1.4098 O.3       1 <0>        -0.2422
     15 C7         -0.7527    1.5927   -1.2315 C.3       1 <0>         0.0737
     16 H2         -1.8153    1.3572   -1.1714 H         1 <0>         0.1224
     17 C8         -0.1304    1.0109   -2.5225 C.3       1 <0>         0.0807
     18 C9         -0.0127    1.0858    0.0080 C.3       1 <0>         0.0818
     19 O4         -0.6816    1.5467    1.1837 O.3       1 <0>        -0.5627
     20 H3          0.2676    6.4964   -6.0605 H         1 <0>         0.0770
     21 H4         -1.1597    6.1950   -7.0805 H         1 <0>         0.0971
     22 H5         -1.3279    6.2540   -5.3095 H         1 <0>         0.0947
     23 H6          0.9122    0.7367   -2.3614 H         1 <0>         0.1175
     24 H7         -0.7064    0.1576   -2.8807 H         1 <0>         0.1269
     25 H8          0.0021   -0.0041    0.0020 H         1 <0>         0.0849
     26 H9          1.0099    1.4631    0.0003 H         1 <0>         0.0694
     27 H10        -0.2663    1.2624    2.0094 H         1 <0>         0.3936
@<TRIPOS>BOND
     1    1    2 1
     2    1   20 1
     3    1   21 1
     4    1   22 1
     5    2    9 am
     6    2    3 1
     7    3   13 1
     8    3    4 2
     9    4    5 1
    10    4   11 1
    11    5    6 2
    12    5    7 am
    13    7    8 1
    14    7    9 am
    15    9   10 2
    16   11   17 1
    17   11   12 1
    18   12   13 2
    19   12   14 1
    20   14   15 1
    21   15   16 1
    22   15   17 1
    23   15   18 1
    24   17   23 1
    25   17   24 1
    26   18   19 1
    27   18   25 1
    28   18   26 1
    29   19   27 1
@<TRIPOS>MOLECULE
ZINC05342867
   27    29     0     0     0
SMALL
USER_CHARGES
hydroxymethyl-methyl-BLAHdione
@<TRIPOS>ATOM
      1 C1         -5.1013    0.0701   -5.9049 C.3       1 <0>         0.0825
      2 N1         -3.6449    0.2286   -5.8945 N.am      1 <0>        -0.5066
      3 C2         -2.9828    0.4627   -4.6999 C.2       1 <0>         0.3542
      4 C3         -1.6006    0.6099   -4.7179 C.2       1 <0>        -0.1334
      5 C4         -0.9157    0.5162   -5.9438 C.2       1 <0>         0.5991
      6 O1          0.2957    0.6419   -5.9836 O.2       1 <0>        -0.5145
      7 N2         -1.6147    0.2863   -7.0745 N.am      1 <0>        -0.6535
      8 H1         -1.1313    0.2193   -7.9473 H         1 <0>         0.4487
      9 C5         -2.9513    0.1459   -7.0454 C.2       1 <0>         0.7138
     10 O2         -3.5487   -0.0605   -8.0843 O.2       1 <0>        -0.5295
     11 N3         -1.2201    0.8325   -3.4058 N.pl3     1 <0>        -0.4615
     12 C6         -2.3373    0.8016   -2.6461 C.2       1 <0>         0.4550
     13 N4         -3.3805    0.5897   -3.4340 N.2       1 <0>        -0.4721
     14 O3         -2.0574    0.9936   -1.3317 O.3       1 <0>        -0.2405
     15 C7         -0.7527    1.5927   -1.2315 C.3       1 <0>         0.0737
     16 H2         -0.8236    2.6803   -1.2225 H         1 <0>         0.1217
     17 C8         -0.0681    1.0940   -2.5257 C.3       1 <0>         0.0806
     18 C9         -0.0127    1.0858    0.0080 C.3       1 <0>         0.0821
     19 O4         -0.6816    1.5467    1.1837 O.3       1 <0>        -0.5616
     20 H3         -5.4402   -0.1063   -6.9257 H         1 <0>         0.1062
     21 H4         -5.3790   -0.7775   -5.2783 H         1 <0>         0.0826
     22 H5         -5.5682    0.9760   -5.5184 H         1 <0>         0.0826
     23 H6          0.5749    1.8666   -2.9471 H         1 <0>         0.1268
     24 H7          0.4939    0.1787   -2.3396 H         1 <0>         0.1176
     25 H8          0.0021   -0.0041    0.0020 H         1 <0>         0.0680
     26 H9          1.0099    1.4631    0.0003 H         1 <0>         0.0848
     27 H10        -0.2663    1.2624    2.0094 H         1 <0>         0.3932
@<TRIPOS>BOND
     1    1    2 1
     2    1   20 1
     3    1   21 1
     4    1   22 1
     5    2    9 am
     6    2    3 1
     7    3   13 1
     8    3    4 2
     9    4    5 1
    10    4   11 1
    11    5    6 2
    12    5    7 am
    13    7    8 1
    14    7    9 am
    15    9   10 2
    16   11   17 1
    17   11   12 1
    18   12   13 2
    19   12   14 1
    20   14   15 1
    21   15   16 1
    22   15   17 1
    23   15   18 1
    24   17   23 1
    25   17   24 1
    26   18   19 1
    27   18   25 1
    28   18   26 1
    29   19   27 1
@<TRIPOS>MOLECULE
ZINC02213987
   55    58     0     0     0
SMALL
USER_CHARGES
2-diethylamino-1-[2-(2-naphthyl)-4-quinolyl]-ethanol
@<TRIPOS>ATOM
      1 C1          7.0053   11.3096   -1.5429 C.3       1 <0>        -0.1912
      2 C2          5.8645   11.9318   -0.7352 C.3       1 <0>        -0.0175
      3 C3          4.5056   12.0745   -2.7341 C.3       1 <0>        -0.0127
      4 C4          4.3757   13.5990   -2.7241 C.3       1 <0>        -0.1881
      5 C5          4.3482   10.1304   -1.2995 C.3       1 <0>        -0.0450
      6 C6          4.1837    9.6933    0.1575 C.3       1 <0>         0.1329
      7 H1          5.0504   10.0170    0.7339 H         1 <0>         0.1364
      8 C7          4.0699    8.1920    0.2218 C.ar      1 <0>        -0.0806
      9 C8          2.8501    7.5838    0.2474 C.ar      1 <0>        -0.1376
     10 C9          2.7687    6.1837    0.3069 C.ar      1 <0>         0.2138
     11 N1          3.8520    5.4313    0.3445 N.ar      1 <0>        -0.4543
     12 C10         5.0726    5.9723    0.3163 C.ar      1 <0>         0.1409
     13 C11         5.2214    7.3809    0.2565 C.ar      1 <0>        -0.0925
     14 C12         6.5081    7.9414    0.2334 C.ar      1 <0>        -0.1253
     15 C13         7.5987    7.1266    0.2678 C.ar      1 <0>        -0.0928
     16 C14         7.4552    5.7418    0.3266 C.ar      1 <0>        -0.0978
     17 C15         6.2234    5.1641    0.3509 C.ar      1 <0>        -0.0796
     18 C16         1.4356    5.5361    0.3342 C.ar      1 <0>        -0.0747
     19 C17         0.2757    6.3279    0.3008 C.ar      1 <0>        -0.1027
     20 C18        -0.9570    5.7591    0.3247 C.ar      1 <0>        -0.1019
     21 C19        -1.0844    4.3594    0.3836 C.ar      1 <0>        -0.0384
     22 C20        -2.3486    3.7469    0.4088 C.ar      1 <0>        -0.1129
     23 C21        -2.4399    2.3897    0.4607 C.ar      1 <0>        -0.1015
     24 C22        -1.2962    1.5943    0.5002 C.ar      1 <0>        -0.1131
     25 C23        -0.0548    2.1515    0.4773 C.ar      1 <0>        -0.0993
     26 C24         0.0793    3.5502    0.4183 C.ar      1 <0>        -0.0612
     27 C25         1.3442    4.1576    0.3927 C.ar      1 <0>        -0.0415
     28 O1          3.0020   10.2844    0.7017 O.3       1 <0>        -0.5417
     29 H2          7.9498   11.4753   -1.0248 H         1 <0>         0.1092
     30 H3          6.8327   10.2387   -1.6501 H         1 <0>         0.0790
     31 H4          7.0461   11.7715   -2.5294 H         1 <0>         0.0845
     32 H5          5.9773   13.0159   -0.7228 H         1 <0>         0.1348
     33 H6          5.8930   11.5518    0.2860 H         1 <0>         0.1276
     34 H7          5.4113   11.7906   -3.2701 H         1 <0>         0.1337
     35 H8          3.6382   11.6392   -3.2303 H         1 <0>         0.1284
     36 H9          3.4843   13.8840   -2.1653 H         1 <0>         0.0811
     37 H10         5.2557   14.0355   -2.2517 H         1 <0>         0.0804
     38 H11         4.2946   13.9635   -3.7481 H         1 <0>         0.1071
     39 H12         5.1985    9.6108   -1.7409 H         1 <0>         0.1463
     40 H13         3.4437    9.8857   -1.8565 H         1 <0>         0.1380
     41 H14         1.9484    8.1778    0.2217 H         1 <0>         0.1422
     42 H15         6.6326    9.0133    0.1875 H         1 <0>         0.1210
     43 H16         8.5880    7.5594    0.2493 H         1 <0>         0.1340
     44 H17         8.3358    5.1169    0.3530 H         1 <0>         0.1391
     45 H18         6.1296    4.0892    0.3969 H         1 <0>         0.1438
     46 H19         0.3656    7.4033    0.2559 H         1 <0>         0.1228
     47 H20        -1.8395    6.3811    0.2981 H         1 <0>         0.1335
     48 H21        -3.2441    4.3501    0.3825 H         1 <0>         0.1311
     49 H22        -3.4134    1.9224    0.4759 H         1 <0>         0.1286
     50 H23        -1.3965    0.5199    0.5452 H         1 <0>         0.1289
     51 H24         0.8229    1.5227    0.5047 H         1 <0>         0.1314
     52 H25         2.2389    3.5533    0.4189 H         1 <0>         0.1420
     53 H26         2.1900   10.0396    0.2370 H         1 <0>         0.3897
     54 N2          4.5580   11.5930   -1.3377 N.4       1 <0>        -0.3919
     55 H27         3.8135   12.0509   -0.7988 H         1 <0>         0.4336
@<TRIPOS>BOND
     1    1    2 1
     2    1   29 1
     3    1   30 1
     4    1   31 1
     5    2   32 1
     6    2   33 1
     7    2   54 1
     8    3    4 1
     9    3   34 1
    10    3   35 1
    11    3   54 1
    12    4   36 1
    13    4   37 1
    14    4   38 1
    15    5    6 1
    16    5   39 1
    17    5   40 1
    18    5   54 1
    19    6    7 1
    20    6    8 1
    21    6   28 1
    22    8   13 ar
    23    8    9 ar
    24    9   10 ar
    25    9   41 1
    26   10   11 ar
    27   10   18 1
    28   11   12 ar
    29   12   17 ar
    30   12   13 ar
    31   13   14 ar
    32   14   15 ar
    33   14   42 1
    34   15   16 ar
    35   15   43 1
    36   16   17 ar
    37   16   44 1
    38   17   45 1
    39   18   27 ar
    40   18   19 ar
    41   19   20 ar
    42   19   46 1
    43   20   21 ar
    44   20   47 1
    45   21   26 ar
    46   21   22 ar
    47   22   23 ar
    48   22   48 1
    49   23   24 ar
    50   23   49 1
    51   24   25 ar
    52   24   50 1
    53   25   26 ar
    54   25   51 1
    55   26   27 ar
    56   27   52 1
    57   28   53 1
    58   54   55 1
@<TRIPOS>MOLECULE
ZINC00416711
   43    45     0     0     0
SMALL
USER_CHARGES
N-[(2-hydroxy-6-methyl-3-quinolyl)methyl]-N-(3-pyridylmethyl)acetamide
@<TRIPOS>ATOM
      1 C1         -6.5821   -1.1941   -4.9230 C.3       1 <0>        -0.1162
      2 C2         -5.3024   -1.7301   -4.3347 C.ar      1 <0>        -0.0957
      3 C3         -4.7091   -2.8600   -4.8935 C.ar      1 <0>        -0.0822
      4 C4         -3.5426   -3.3579   -4.3983 C.ar      1 <0>        -0.1031
      5 C5         -2.9437   -2.7500   -3.2816 C.ar      1 <0>         0.1695
      6 C6         -3.5518   -1.6052   -2.7112 C.ar      1 <0>        -0.1323
      7 C7         -4.7408   -1.1036   -3.2639 C.ar      1 <0>        -0.0821
      8 C8         -2.9472   -0.9918   -1.5960 C.ar      1 <0>         0.0137
      9 C9         -1.7944   -1.5320   -1.1085 C.ar      1 <0>        -0.2333
     10 C10        -1.2561   -2.6802   -1.7022 C.ar      1 <0>         0.3668
     11 N1         -1.8143   -3.2370   -2.7555 N.ar      1 <0>        -0.4982
     12 O1         -0.1120   -3.2088   -1.2029 O.3       1 <0>        -0.4515
     13 C11        -1.1111   -0.9060    0.0799 C.3       1 <0>         0.1547
     14 N2         -0.0185   -0.0462   -0.3819 N.am      1 <0>        -0.6125
     15 C12         1.3509   -0.5643   -0.4304 C.3       1 <0>         0.1418
     16 C13         1.9858   -0.4343    0.9301 C.ar      1 <0>        -0.1675
     17 C14         2.6741    0.7186    1.2764 C.ar      1 <0>        -0.0635
     18 C15         3.2380    0.7959    2.5406 C.ar      1 <0>        -0.1676
     19 C16         3.1047   -0.2754    3.4040 C.ar      1 <0>         0.1071
     20 N3          2.4472   -1.3583    3.0388 N.ar      1 <0>        -0.4790
     21 C17         1.8942   -1.4647    1.8461 C.ar      1 <0>         0.1116
     22 C18        -0.2733    1.2215   -0.7620 C.2       1 <0>         0.5194
     23 O2         -1.4158    1.6267   -0.7952 O.2       1 <0>        -0.5302
     24 C19         0.8612    2.1337   -1.1519 C.3       1 <0>        -0.1853
     25 H1         -6.3479   -0.4662   -5.6999 H         1 <0>         0.0728
     26 H2         -7.1551   -2.0146   -5.3549 H         1 <0>         0.0693
     27 H3         -7.1688   -0.7139   -4.1400 H         1 <0>         0.0681
     28 H4         -5.1737   -3.3394   -5.7425 H         1 <0>         0.1323
     29 H5         -3.0870   -4.2252   -4.8528 H         1 <0>         0.1381
     30 H6         -5.2099   -0.2283   -2.8395 H         1 <0>         0.1309
     31 H7         -3.3855   -0.1167   -1.1395 H         1 <0>         0.1490
     32 H8          0.1828   -2.6762   -0.4095 H         1 <0>         0.3945
     33 H9         -0.7099   -1.6895    0.7228 H         1 <0>         0.0880
     34 H10        -1.8309   -0.3094    0.6403 H         1 <0>         0.1061
     35 H11         1.3320   -1.6140   -0.7239 H         1 <0>         0.0923
     36 H12         1.9295    0.0057   -1.1574 H         1 <0>         0.1050
     37 H13         2.7654    1.5385    0.5793 H         1 <0>         0.1390
     38 H14         3.7779    1.6800    2.8454 H         1 <0>         0.1397
     39 H15         3.5446   -0.2247    4.3891 H         1 <0>         0.1595
     40 H16         1.3634   -2.3676    1.5826 H         1 <0>         0.1517
     41 H17         1.0443    2.0484   -2.2231 H         1 <0>         0.0978
     42 H18         0.5994    3.1634   -0.9090 H         1 <0>         0.0981
     43 H19         1.7605    1.8488   -0.6058 H         1 <0>         0.0835
@<TRIPOS>BOND
     1    1    2 1
     2    1   25 1
     3    1   26 1
     4    1   27 1
     5    2    7 ar
     6    2    3 ar
     7    3    4 ar
     8    3   28 1
     9    4    5 ar
    10    4   29 1
    11    5    6 ar
    12    5   11 ar
    13    6    7 ar
    14    6    8 ar
    15    7   30 1
    16    8   31 1
    17    8    9 ar
    18    9   13 1
    19    9   10 ar
    20   10   11 ar
    21   10   12 1
    22   12   32 1
    23   13   14 1
    24   13   33 1
    25   13   34 1
    26   14   15 1
    27   14   22 am
    28   15   16 1
    29   15   35 1
    30   15   36 1
    31   16   21 ar
    32   16   17 ar
    33   17   18 ar
    34   17   37 1
    35   18   19 ar
    36   18   38 1
    37   19   20 ar
    38   19   39 1
    39   20   21 ar
    40   21   40 1
    41   22   23 2
    42   22   24 1
    43   24   41 1
    44   24   42 1
    45   24   43 1
@<TRIPOS>MOLECULE
ZINC05342914
   46    49     0     0     0
SMALL
USER_CHARGES
phenylBLAHone
@<TRIPOS>ATOM
      1 C1          5.9489   -0.2349   -7.0365 C.ar      1 <0>        -0.0937
      2 C2          6.4052    0.8059   -6.2495 C.ar      1 <0>        -0.1094
      3 C3          5.5467    1.4313   -5.3648 C.ar      1 <0>        -0.1003
      4 C4          4.2317    1.0163   -5.2675 C.ar      1 <0>        -0.1213
      5 C5          3.7767   -0.0279   -6.0508 C.ar      1 <0>        -0.1143
      6 C6          4.6341   -0.6505   -6.9386 C.ar      1 <0>        -0.1093
      7 C7          3.2957    1.6982   -4.3031 C.3       1 <0>        -0.0365
      8 H1          3.8324    2.4977   -3.7924 H         1 <0>         0.1096
      9 C8          2.8183    0.6797   -3.2700 C.3       1 <0>        -0.1251
     10 C9          1.8974    1.4052   -2.2965 C.2       1 <0>         0.3565
     11 C10         1.4233    2.0434   -0.0006 C.3       1 <0>         0.0713
     12 H2          1.4578    3.1240   -0.1396 H         1 <0>         0.1665
     13 C11         2.0484    1.6198    1.3467 C.3       1 <0>        -0.1407
     14 C12         2.0929    0.0899    1.3874 C.3       1 <0>        -0.1405
     15 C13         0.6825   -0.4893    1.2878 C.3       1 <0>        -0.1283
     16 C14         0.0021   -0.0041    0.0020 C.3       1 <0>        -0.1360
     17 C15        -0.0186    1.5189    0.0104 C.3       1 <0>         0.0522
     18 H3         -0.4760    1.8366    0.9474 H         1 <0>         0.1671
     19 C16        -0.3877    2.4204   -2.2602 C.2       1 <0>         0.3239
     20 C17         0.7874    2.1470   -2.8986 C.3       1 <0>        -0.1470
     21 C18         0.9217    2.5536   -4.2546 C.2       1 <0>         0.3921
     22 O1         -0.0056    3.1438   -4.7704 O.2       1 <0>        -0.3858
     23 C19         2.1368    2.2965   -5.0778 C.3       1 <0>        -0.1488
     24 H4          6.6194   -0.7231   -7.7282 H         1 <0>         0.1341
     25 H5          7.4324    1.1306   -6.3260 H         1 <0>         0.1339
     26 H6          5.9032    2.2445   -4.7499 H         1 <0>         0.1270
     27 H7          2.7505   -0.3550   -5.9716 H         1 <0>         0.1238
     28 H8          4.2775   -1.4634   -7.5537 H         1 <0>         0.1333
     29 H9          3.6075    0.2982   -2.7887 H         1 <0>         0.1221
     30 H10         2.2728   -0.1228   -3.7665 H         1 <0>         0.1619
     31 H11         1.4382    1.9926    2.1694 H         1 <0>         0.1249
     32 H12         3.0591    2.0201    1.4259 H         1 <0>         0.1164
     33 H13         2.5487   -0.2319    2.3237 H         1 <0>         0.1138
     34 H14         2.6914   -0.2749    0.5525 H         1 <0>         0.0598
     35 H15         0.0980   -0.1673    2.1496 H         1 <0>         0.0941
     36 H16         0.7388   -1.5778    1.2782 H         1 <0>         0.1047
     37 H17        -1.0188   -0.3839   -0.0377 H         1 <0>         0.1128
     38 H18         0.5584   -0.3579   -0.8660 H         1 <0>         0.0743
     39 H19         0.9114    3.1253   -2.7327 H         1 <0>         0.2312
     40 H20        -1.0941    2.9960   -2.8400 H         1 <0>         0.2287
     41 H21         1.8618    1.6675   -5.8049 H         1 <0>         0.1326
     42 H22         2.4634    3.2388   -5.5177 H         1 <0>         0.1515
     43 N1          2.2389    1.2679   -1.0226 N.pl3     1 <0>        -0.5178
     44 H23         3.0197    0.6645   -0.7390 H         1 <0>         0.4860
     45 N2         -0.9181    2.1187   -1.0301 N.pl3     1 <0>        -0.5453
     46 H24        -1.9081    2.2995   -0.8269 H         1 <0>         0.4938
@<TRIPOS>BOND
     1    1    6 ar
     2    1    2 ar
     3    1   24 1
     4    2    3 ar
     5    2   25 1
     6    3    4 ar
     7    3   26 1
     8    4    5 ar
     9    4    7 1
    10    5    6 ar
    11    5   27 1
    12    6   28 1
    13    7    8 1
    14    7   23 1
    15    7    9 1
    16    9   10 1
    17    9   29 1
    18    9   30 1
    19   10   20 1
    20   10   43 2
    21   11   12 1
    22   11   17 1
    23   11   13 1
    24   11   43 1
    25   13   14 1
    26   13   31 1
    27   13   32 1
    28   14   15 1
    29   14   33 1
    30   14   34 1
    31   15   16 1
    32   15   35 1
    33   15   36 1
    34   16   17 1
    35   16   37 1
    36   16   38 1
    37   17   18 1
    38   17   45 1
    39   19   40 1
    40   19   20 1
    41   19   45 2
    42   20   21 1
    43   20   39 1
    44   21   22 2
    45   21   23 1
    46   23   41 1
    47   23   42 1
    48   43   44 1
    49   45   46 1
@<TRIPOS>MOLECULE
ZINC05342917
   46    49     0     0     0
SMALL
USER_CHARGES
phenylBLAHone
@<TRIPOS>ATOM
      1 C1         -2.3169    4.6860    7.5164 C.ar      1 <0>        -0.0933
      2 C2         -1.1148    4.0097    7.4246 C.ar      1 <0>        -0.1092
      3 C3         -0.5597    3.7519    6.1852 C.ar      1 <0>        -0.0999
      4 C4         -1.2069    4.1700    5.0375 C.ar      1 <0>        -0.1211
      5 C5         -2.4064    4.8508    5.1295 C.ar      1 <0>        -0.1149
      6 C6         -2.9637    5.1048    6.3688 C.ar      1 <0>        -0.1088
      7 C7         -0.6018    3.8889    3.6863 C.3       1 <0>        -0.0355
      8 H1          0.3457    3.3674    3.8223 H         1 <0>         0.1085
      9 C8         -1.5530    2.9961    2.8911 C.3       1 <0>        -0.1253
     10 C9         -0.9111    2.7176    1.5433 C.2       1 <0>         0.3725
     11 C10        -0.0127    1.0858    0.0080 C.3       1 <0>         0.0456
     12 H2          0.0021   -0.0041    0.0020 H         1 <0>         0.1786
     13 C11         1.4314    1.5662   -0.0032 C.3       1 <0>        -0.1392
     14 C12         2.1546    0.8996   -1.1804 C.3       1 <0>        -0.1238
     15 C13         1.4399    1.2260   -2.4907 C.3       1 <0>        -0.1444
     16 C14        -0.0232    0.7782   -2.4326 C.3       1 <0>        -0.1421
     17 C15        -0.7092    1.5467   -1.2800 C.3       1 <0>         0.0795
     18 H3         -1.7818    1.3549   -1.2488 H         1 <0>         0.1682
     19 C16        -0.2392    3.8793   -0.5672 C.2       1 <0>         0.3125
     20 C17        -0.4500    3.8768    0.7770 C.3       1 <0>        -0.1540
     21 C18        -0.2116    5.0828    1.4964 C.2       1 <0>         0.3895
     22 O1          0.1196    6.0681    0.8688 O.2       1 <0>        -0.3848
     23 C19        -0.3458    5.2040    2.9748 C.3       1 <0>        -0.1493
     24 H4         -2.7509    4.8868    8.4848 H         1 <0>         0.1344
     25 H5         -0.6094    3.6825    8.3213 H         1 <0>         0.1340
     26 H6          0.3795    3.2235    6.1135 H         1 <0>         0.1267
     27 H7         -2.9099    5.1813    4.2330 H         1 <0>         0.1251
     28 H8         -3.9031    5.6329    6.4405 H         1 <0>         0.1338
     29 H9         -1.7036    2.1423    3.3895 H         1 <0>         0.1250
     30 H10        -2.5056    3.5063    2.7485 H         1 <0>         0.1649
     31 H11         1.4569    2.6494   -0.1226 H         1 <0>         0.0486
     32 H12         1.9178    1.2886    0.9319 H         1 <0>         0.1208
     33 H13         3.1805    1.2649   -1.2278 H         1 <0>         0.1065
     34 H14         2.1623   -0.1806   -1.0348 H         1 <0>         0.0981
     35 H15         1.4799    2.3014   -2.6637 H         1 <0>         0.0646
     36 H16         1.9407    0.7118   -3.3110 H         1 <0>         0.1107
     37 H17        -0.5176    1.0098   -3.3760 H         1 <0>         0.1154
     38 H18        -0.0735   -0.2941   -2.2434 H         1 <0>         0.1227
     39 H19         0.5494    3.8781    0.7436 H         1 <0>         0.2302
     40 H20         0.1404    4.8160   -0.9478 H         1 <0>         0.2239
     41 H21         0.5093    5.6018    3.3072 H         1 <0>         0.1294
     42 H22        -1.1705    5.8824    3.1933 H         1 <0>         0.1564
     43 N1         -0.8063    1.4373    1.2327 N.pl3     1 <0>        -0.5209
     44 H23        -1.2505    0.7112    1.8069 H         1 <0>         0.4911
     45 N2         -0.3975    3.0028   -1.6026 N.pl3     1 <0>        -0.5422
     46 H24        -0.3084    3.3178   -2.5758 H         1 <0>         0.4914
@<TRIPOS>BOND
     1    1    6 ar
     2    1    2 ar
     3    1   24 1
     4    2    3 ar
     5    2   25 1
     6    3    4 ar
     7    3   26 1
     8    4    5 ar
     9    4    7 1
    10    5    6 ar
    11    5   27 1
    12    6   28 1
    13    7    8 1
    14    7   23 1
    15    7    9 1
    16    9   10 1
    17    9   29 1
    18    9   30 1
    19   10   20 1
    20   10   43 2
    21   11   12 1
    22   11   17 1
    23   11   13 1
    24   11   43 1
    25   13   14 1
    26   13   31 1
    27   13   32 1
    28   14   15 1
    29   14   33 1
    30   14   34 1
    31   15   16 1
    32   15   35 1
    33   15   36 1
    34   16   17 1
    35   16   37 1
    36   16   38 1
    37   17   18 1
    38   17   45 1
    39   19   40 1
    40   19   20 1
    41   19   45 2
    42   20   21 1
    43   20   39 1
    44   21   22 2
    45   21   23 1
    46   23   41 1
    47   23   42 1
    48   43   44 1
    49   45   46 1
@<TRIPOS>MOLECULE
ZINC05342918
   46    49     0     0     0
SMALL
USER_CHARGES
phenylBLAHone
@<TRIPOS>ATOM
      1 C1         -3.9503   -1.0422    2.1850 C.ar      1 <0>        -0.0974
      2 C2         -2.9063   -0.9117    3.0817 C.ar      1 <0>        -0.0840
      3 C3         -1.8472   -0.0720    2.7919 C.ar      1 <0>        -0.0879
      4 C4         -1.8318    0.6369    1.6053 C.ar      1 <0>        -0.1142
      5 C5         -2.8783    0.5105    0.7110 C.ar      1 <0>        -0.1772
      6 C6         -3.9355   -0.3322    0.9990 C.ar      1 <0>        -0.0990
      7 C7         -0.6771    1.5523    1.2894 C.3       1 <0>        -0.0477
      8 H1          0.0465    1.5028    2.1031 H         1 <0>         0.1524
      9 C8         -1.1924    2.9844    1.1732 C.3       1 <0>        -0.1148
     10 C9         -2.2231    3.0097    0.0521 C.2       1 <0>         0.3679
     11 C10        -4.5238    3.4452   -0.6325 C.3       1 <0>         0.0755
     12 H2         -4.7004    2.4297   -0.9871 H         1 <0>         0.1521
     13 C11        -5.7233    3.9600    0.1705 C.3       1 <0>        -0.1390
     14 C12        -6.9398    4.1765   -0.7222 C.3       1 <0>        -0.1264
     15 C13        -6.5745    5.2365   -1.7689 C.3       1 <0>        -0.1265
     16 C14        -5.4571    4.6718   -2.6384 C.3       1 <0>        -0.1432
     17 C15        -4.2033    4.3668   -1.8110 C.3       1 <0>         0.0787
     18 H3         -3.7488    5.2894   -1.4500 H         1 <0>         0.1589
     19 C16        -2.3258    2.8389   -2.4286 C.2       1 <0>         0.3118
     20 C17        -1.7787    2.4689   -1.2357 C.3       1 <0>        -0.1536
     21 C18        -0.6896    1.5577   -1.2337 C.2       1 <0>         0.3909
     22 O1         -0.2876    1.1408   -2.3009 O.2       1 <0>        -0.3841
     23 C19        -0.0127    1.0858    0.0080 C.3       1 <0>        -0.1437
     24 H4         -4.7776   -1.6985    2.4113 H         1 <0>         0.1403
     25 H5         -2.9180   -1.4661    4.0085 H         1 <0>         0.1436
     26 H6         -1.0315    0.0299    3.4925 H         1 <0>         0.1438
     27 H7         -2.8683    1.0677   -0.2141 H         1 <0>         0.0638
     28 H8         -4.7513   -0.4339    0.2986 H         1 <0>         0.1289
     29 H9         -0.4299    3.5972    0.9658 H         1 <0>         0.1463
     30 H10        -1.6581    3.2885    2.1107 H         1 <0>         0.1401
     31 H11        -5.9731    3.2332    0.9434 H         1 <0>         0.1118
     32 H12        -5.4561    4.9047    0.6441 H         1 <0>         0.1022
     33 H13        -7.2032    3.2429   -1.2194 H         1 <0>         0.0835
     34 H14        -7.7805    4.5243   -0.1219 H         1 <0>         0.1064
     35 H15        -7.4446    5.4603   -2.3861 H         1 <0>         0.1054
     36 H16        -6.2317    6.1434   -1.2709 H         1 <0>         0.0857
     37 H17        -5.2059    5.3976   -3.4118 H         1 <0>         0.1111
     38 H18        -5.8036    3.7533   -3.1121 H         1 <0>         0.0977
     39 H19        -2.2948    1.6382   -1.4443 H         1 <0>         0.2301
     40 H20        -1.8877    2.3518   -3.2872 H         1 <0>         0.2245
     41 H21        -0.0166    0.0863   -0.0247 H         1 <0>         0.1285
     42 H22         1.0162    1.4455    0.0001 H         1 <0>         0.1604
     43 N1         -3.3996    3.5092    0.3981 N.pl3     1 <0>        -0.5290
     44 H23        -3.5502    3.9240    1.3252 H         1 <0>         0.4867
     45 N2         -3.2985    3.7009   -2.8487 N.pl3     1 <0>        -0.5524
     46 H24        -3.4208    3.8992   -3.8487 H         1 <0>         0.4908
@<TRIPOS>BOND
     1    1    6 ar
     2    1    2 ar
     3    1   24 1
     4    2    3 ar
     5    2   25 1
     6    3    4 ar
     7    3   26 1
     8    4    5 ar
     9    4    7 1
    10    5    6 ar
    11    5   27 1
    12    6   28 1
    13    7    8 1
    14    7   23 1
    15    7    9 1
    16    9   10 1
    17    9   29 1
    18    9   30 1
    19   10   20 1
    20   10   43 2
    21   11   12 1
    22   11   17 1
    23   11   13 1
    24   11   43 1
    25   13   14 1
    26   13   31 1
    27   13   32 1
    28   14   15 1
    29   14   33 1
    30   14   34 1
    31   15   16 1
    32   15   35 1
    33   15   36 1
    34   16   17 1
    35   16   37 1
    36   16   38 1
    37   17   18 1
    38   17   45 1
    39   19   40 1
    40   19   20 1
    41   19   45 2
    42   20   21 1
    43   20   39 1
    44   21   22 2
    45   21   23 1
    46   23   41 1
    47   23   42 1
    48   43   44 1
    49   45   46 1
@<TRIPOS>MOLECULE
ZINC05342921
   46    49     0     0     0
SMALL
USER_CHARGES
phenylBLAHone
@<TRIPOS>ATOM
      1 C1         -5.0969    6.3315   -8.1295 C.ar      1 <0>        -0.0936
      2 C2         -4.3277    7.1947   -7.3718 C.ar      1 <0>        -0.1096
      3 C3         -3.3638    6.6928   -6.5175 C.ar      1 <0>        -0.0998
      4 C4         -3.1697    5.3276   -6.4202 C.ar      1 <0>        -0.1217
      5 C5         -3.9356    4.4646   -7.1814 C.ar      1 <0>        -0.1142
      6 C6         -4.9025    4.9663   -8.0326 C.ar      1 <0>        -0.1095
      7 C7         -2.1190    4.7804   -5.4887 C.3       1 <0>        -0.0373
      8 H1         -1.6372    5.6097   -4.9708 H         1 <0>         0.1100
      9 C8         -2.7901    3.8732   -4.4593 C.3       1 <0>        -0.1241
     10 C9         -1.7068    3.3584   -3.5215 C.2       1 <0>         0.3629
     11 C10        -0.8943    3.1060   -1.2334 C.3       1 <0>         0.0747
     12 H2          0.0640    3.5862   -1.4312 H         1 <0>         0.1551
     13 C11        -1.4653    3.5953    0.1018 C.3       1 <0>        -0.1417
     14 C12        -0.6287    3.1053    1.2783 C.3       1 <0>        -0.1263
     15 C13        -0.7068    1.5678    1.2766 C.3       1 <0>        -0.1268
     16 C14        -0.0127    1.0858    0.0080 C.3       1 <0>        -0.1447
     17 C15        -0.7349    1.5841   -1.2488 C.3       1 <0>         0.0777
     18 H3         -1.7113    1.1069   -1.3331 H         1 <0>         0.1592
     19 C16         0.2095    1.7684   -3.5528 C.2       1 <0>         0.3158
     20 C17        -0.5582    2.7134   -4.1653 C.3       1 <0>        -0.1460
     21 C18        -0.2798    3.0509   -5.5166 C.2       1 <0>         0.3927
     22 O1          0.6592    2.5078   -6.0621 O.2       1 <0>        -0.3855
     23 C19        -1.0774    4.0354   -6.3017 C.3       1 <0>        -0.1485
     24 H4         -5.8499    6.7237   -8.7970 H         1 <0>         0.1341
     25 H5         -4.4796    8.2613   -7.4476 H         1 <0>         0.1340
     26 H6         -2.7626    7.3672   -5.9257 H         1 <0>         0.1273
     27 H7         -3.7810    3.3982   -7.1087 H         1 <0>         0.1234
     28 H8         -5.5036    4.2919   -8.6243 H         1 <0>         0.1331
     29 H9         -3.2392    3.1125   -4.9279 H         1 <0>         0.1435
     30 H10        -3.5305    4.4389   -3.8937 H         1 <0>         0.1405
     31 H11        -1.4808    4.6852    0.1049 H         1 <0>         0.1114
     32 H12        -2.4843    3.2242    0.2112 H         1 <0>         0.1020
     33 H13         0.3995    3.4500    1.1685 H         1 <0>         0.0867
     34 H14        -1.0468    3.4838    2.2110 H         1 <0>         0.1054
     35 H15        -1.7410    1.2235    1.2845 H         1 <0>         0.0884
     36 H16        -0.1831    1.1838    2.1520 H         1 <0>         0.1041
     37 H17         0.0021   -0.0041    0.0020 H         1 <0>         0.1103
     38 H18         1.0125    1.4559    0.0002 H         1 <0>         0.0980
     39 H19         0.2650    3.2565   -3.9998 H         1 <0>         0.2318
     40 H20         1.0391    1.4181   -4.1490 H         1 <0>         0.2243
     41 H21        -1.5290    3.5208   -7.0306 H         1 <0>         0.1323
     42 H22        -0.3949    4.7631   -6.7408 H         1 <0>         0.1518
     43 N1         -1.9684    3.5255   -2.2337 N.pl3     1 <0>        -0.5280
     44 H23        -2.8615    3.9230   -1.9197 H         1 <0>         0.4870
     45 N2          0.2034    1.1067   -2.3582 N.pl3     1 <0>        -0.5512
     46 H24         0.8202    0.2999   -2.2070 H         1 <0>         0.4911
@<TRIPOS>BOND
     1    1    6 ar
     2    1    2 ar
     3    1   24 1
     4    2    3 ar
     5    2   25 1
     6    3    4 ar
     7    3   26 1
     8    4    5 ar
     9    4    7 1
    10    5    6 ar
    11    5   27 1
    12    6   28 1
    13    7    8 1
    14    7   23 1
    15    7    9 1
    16    9   10 1
    17    9   29 1
    18    9   30 1
    19   10   20 1
    20   10   43 2
    21   11   12 1
    22   11   17 1
    23   11   13 1
    24   11   43 1
    25   13   14 1
    26   13   31 1
    27   13   32 1
    28   14   15 1
    29   14   33 1
    30   14   34 1
    31   15   16 1
    32   15   35 1
    33   15   36 1
    34   16   17 1
    35   16   37 1
    36   16   38 1
    37   17   18 1
    38   17   45 1
    39   19   40 1
    40   19   20 1
    41   19   45 2
    42   20   21 1
    43   20   39 1
    44   21   22 2
    45   21   23 1
    46   23   41 1
    47   23   42 1
    48   43   44 1
    49   45   46 1
@<TRIPOS>MOLECULE
ZINC02214909
   55    58     0     0     0
SMALL
USER_CHARGES
2-diethylamino-1-[2-(2-naphthyl)-4-quinolyl]-ethanol
@<TRIPOS>ATOM
      1 C1          7.0053   11.3096   -1.5429 C.3       1 <0>        -0.1912
      2 C2          5.8645   11.9318   -0.7352 C.3       1 <0>        -0.0175
      3 C3          4.5056   12.0745   -2.7341 C.3       1 <0>        -0.0127
      4 C4          4.3757   13.5990   -2.7241 C.3       1 <0>        -0.1881
      5 C5          4.3482   10.1304   -1.2995 C.3       1 <0>        -0.0450
      6 C6          4.1837    9.6933    0.1575 C.3       1 <0>         0.1329
      7 H1          5.0504   10.0170    0.7339 H         1 <0>         0.1364
      8 C7          4.0699    8.1920    0.2218 C.ar      1 <0>        -0.0806
      9 C8          2.8501    7.5838    0.2474 C.ar      1 <0>        -0.1376
     10 C9          2.7687    6.1837    0.3069 C.ar      1 <0>         0.2138
     11 N1          3.8520    5.4313    0.3445 N.ar      1 <0>        -0.4543
     12 C10         5.0726    5.9723    0.3163 C.ar      1 <0>         0.1409
     13 C11         5.2214    7.3809    0.2565 C.ar      1 <0>        -0.0925
     14 C12         6.5081    7.9414    0.2334 C.ar      1 <0>        -0.1253
     15 C13         7.5987    7.1266    0.2678 C.ar      1 <0>        -0.0928
     16 C14         7.4552    5.7418    0.3266 C.ar      1 <0>        -0.0978
     17 C15         6.2234    5.1641    0.3509 C.ar      1 <0>        -0.0796
     18 C16         1.4356    5.5361    0.3342 C.ar      1 <0>        -0.0747
     19 C17         0.2757    6.3279    0.3008 C.ar      1 <0>        -0.1027
     20 C18        -0.9570    5.7591    0.3247 C.ar      1 <0>        -0.1019
     21 C19        -1.0844    4.3594    0.3836 C.ar      1 <0>        -0.0384
     22 C20        -2.3486    3.7469    0.4088 C.ar      1 <0>        -0.1129
     23 C21        -2.4399    2.3897    0.4607 C.ar      1 <0>        -0.1015
     24 C22        -1.2962    1.5943    0.5002 C.ar      1 <0>        -0.1131
     25 C23        -0.0548    2.1515    0.4773 C.ar      1 <0>        -0.0993
     26 C24         0.0793    3.5502    0.4183 C.ar      1 <0>        -0.0612
     27 C25         1.3442    4.1576    0.3927 C.ar      1 <0>        -0.0415
     28 O1          3.0020   10.2844    0.7017 O.3       1 <0>        -0.5417
     29 H2          7.9498   11.4753   -1.0248 H         1 <0>         0.1092
     30 H3          6.8327   10.2387   -1.6501 H         1 <0>         0.0790
     31 H4          7.0461   11.7715   -2.5294 H         1 <0>         0.0845
     32 H5          5.9773   13.0159   -0.7228 H         1 <0>         0.1348
     33 H6          5.8930   11.5518    0.2860 H         1 <0>         0.1276
     34 H7          5.4113   11.7906   -3.2701 H         1 <0>         0.1337
     35 H8          3.6382   11.6392   -3.2303 H         1 <0>         0.1284
     36 H9          3.4843   13.8840   -2.1653 H         1 <0>         0.0811
     37 H10         5.2557   14.0355   -2.2517 H         1 <0>         0.0804
     38 H11         4.2946   13.9635   -3.7481 H         1 <0>         0.1071
     39 H12         5.1985    9.6108   -1.7409 H         1 <0>         0.1463
     40 H13         3.4437    9.8857   -1.8565 H         1 <0>         0.1380
     41 H14         1.9484    8.1778    0.2217 H         1 <0>         0.1422
     42 H15         6.6326    9.0133    0.1875 H         1 <0>         0.1210
     43 H16         8.5880    7.5594    0.2493 H         1 <0>         0.1340
     44 H17         8.3358    5.1169    0.3530 H         1 <0>         0.1391
     45 H18         6.1296    4.0892    0.3969 H         1 <0>         0.1438
     46 H19         0.3656    7.4033    0.2559 H         1 <0>         0.1228
     47 H20        -1.8395    6.3811    0.2981 H         1 <0>         0.1335
     48 H21        -3.2441    4.3501    0.3825 H         1 <0>         0.1311
     49 H22        -3.4134    1.9224    0.4759 H         1 <0>         0.1286
     50 H23        -1.3965    0.5199    0.5452 H         1 <0>         0.1289
     51 H24         0.8229    1.5227    0.5047 H         1 <0>         0.1314
     52 H25         2.2389    3.5533    0.4189 H         1 <0>         0.1420
     53 H26         2.1900   10.0396    0.2370 H         1 <0>         0.3897
     54 N2          4.5580   11.5930   -1.3377 N.4       1 <0>        -0.3919
     55 H27         3.8135   12.0509   -0.7988 H         1 <0>         0.4336
@<TRIPOS>BOND
     1    1    2 1
     2    1   29 1
     3    1   30 1
     4    1   31 1
     5    2   32 1
     6    2   33 1
     7    2   54 1
     8    3    4 1
     9    3   34 1
    10    3   35 1
    11    3   54 1
    12    4   36 1
    13    4   37 1
    14    4   38 1
    15    5    6 1
    16    5   39 1
    17    5   40 1
    18    5   54 1
    19    6    7 1
    20    6    8 1
    21    6   28 1
    22    8   13 ar
    23    8    9 ar
    24    9   10 ar
    25    9   41 1
    26   10   11 ar
    27   10   18 1
    28   11   12 ar
    29   12   17 ar
    30   12   13 ar
    31   13   14 ar
    32   14   15 ar
    33   14   42 1
    34   15   16 ar
    35   15   43 1
    36   16   17 ar
    37   16   44 1
    38   17   45 1
    39   18   27 ar
    40   18   19 ar
    41   19   20 ar
    42   19   46 1
    43   20   21 ar
    44   20   47 1
    45   21   26 ar
    46   21   22 ar
    47   22   23 ar
    48   22   48 1
    49   23   24 ar
    50   23   49 1
    51   24   25 ar
    52   24   50 1
    53   25   26 ar
    54   25   51 1
    55   26   27 ar
    56   27   52 1
    57   28   53 1
    58   54   55 1
@<TRIPOS>MOLECULE
ZINC02215166
   32    34     0     0     0
SMALL
USER_CHARGES
8-benzylamino-3-chloro-4-methyl-1,5,7,9-tetrazabicyclo[4.3.0]nona-3,6,8-trien-2-one
@<TRIPOS>ATOM
      1 C1          9.9099   -4.1782   -4.4032 C.3       1 <0>        -0.1369
      2 C2          8.9559   -3.6442   -3.3660 C.2       1 <0>         0.2363
      3 C3          9.2313   -3.7981   -2.0508 C.2       1 <0>        -0.2244
      4 C4          8.3312   -3.2937   -1.0869 C.2       1 <0>         0.5717
      5 O1          8.5685   -3.4258    0.1009 O.2       1 <0>        -0.4634
      6 N1          7.2108   -2.6663   -1.4867 N.am      1 <0>        -0.3665
      7 C5          6.9404   -2.5152   -2.8118 C.2       1 <0>         0.5206
      8 N2          7.8144   -3.0050   -3.7537 N.pl3     1 <0>        -0.5761
      9 H1          7.6126   -2.8923   -4.7266 H         1 <0>         0.4539
     10 N3          5.7918   -1.8777   -2.9143 N.2       1 <0>        -0.5591
     11 C6          5.3162   -1.6053   -1.6954 C.2       1 <0>         0.5119
     12 N4          6.1485   -2.0712   -0.7924 N.2       1 <0>        -0.3283
     13 N5          4.1236   -0.9381   -1.4254 N.pl3     1 <0>        -0.6846
     14 C7          3.7112   -0.7071   -0.0387 C.3       1 <0>         0.1787
     15 C8          2.3960    0.0285   -0.0217 C.ar      1 <0>        -0.1126
     16 C9          1.2084   -0.6789   -0.0136 C.ar      1 <0>        -0.0965
     17 C10         0.0021   -0.0041    0.0020 C.ar      1 <0>        -0.1225
     18 C11        -0.0167    1.3781    0.0096 C.ar      1 <0>        -0.1083
     19 C12         1.1709    2.0855    0.0021 C.ar      1 <0>        -0.1225
     20 C13         2.3773    1.4107   -0.0136 C.ar      1 <0>        -0.0965
     21 Cl1        10.6816   -4.6108   -1.5511 Cl        1 <0>         0.0099
     22 H2         10.7572   -4.6522   -3.9077 H         1 <0>         0.1099
     23 H3          9.3967   -4.9110   -5.0259 H         1 <0>         0.1034
     24 H4         10.2659   -3.3576   -5.0262 H         1 <0>         0.1034
     25 H5          3.5661   -0.6264   -2.1555 H         1 <0>         0.4194
     26 H6          4.4678   -0.1105    0.4708 H         1 <0>         0.0770
     27 H7          3.5989   -1.6640    0.4711 H         1 <0>         0.0769
     28 H8          1.2231   -1.7587   -0.0199 H         1 <0>         0.1250
     29 H9         -0.9258   -0.5567    0.0079 H         1 <0>         0.1253
     30 H10        -0.9592    1.9054    0.0170 H         1 <0>         0.1244
     31 H11         1.1563    3.1654    0.0077 H         1 <0>         0.1253
     32 H12         3.3051    1.9634   -0.0195 H         1 <0>         0.1250
@<TRIPOS>BOND
     1    1    2 1
     2    1   22 1
     3    1   23 1
     4    1   24 1
     5    2    8 1
     6    2    3 2
     7    3    4 1
     8    3   21 1
     9    4    5 2
    10    4    6 am
    11    6   12 1
    12    6    7 1
    13    7    8 1
    14    7   10 2
    15    8    9 1
    16   10   11 1
    17   11   12 2
    18   11   13 1
    19   13   14 1
    20   13   25 1
    21   14   15 1
    22   14   26 1
    23   14   27 1
    24   15   20 ar
    25   15   16 ar
    26   16   17 ar
    27   16   28 1
    28   17   18 ar
    29   17   29 1
    30   18   19 ar
    31   18   30 1
    32   19   20 ar
    33   19   31 1
    34   20   32 1
@<TRIPOS>MOLECULE
ZINC02215190
   55    58     0     0     0
SMALL
USER_CHARGES
2-diethylamino-1-[2-(2-naphthyl)-4-quinolyl]-ethanol
@<TRIPOS>ATOM
      1 C1          7.0053   11.3096   -1.5429 C.3       1 <0>        -0.1912
      2 C2          5.8645   11.9318   -0.7352 C.3       1 <0>        -0.0175
      3 C3          4.5056   12.0745   -2.7341 C.3       1 <0>        -0.0127
      4 C4          4.3757   13.5990   -2.7241 C.3       1 <0>        -0.1881
      5 C5          4.3482   10.1304   -1.2995 C.3       1 <0>        -0.0450
      6 C6          4.1837    9.6933    0.1575 C.3       1 <0>         0.1329
      7 H1          5.0504   10.0170    0.7339 H         1 <0>         0.1364
      8 C7          4.0699    8.1920    0.2218 C.ar      1 <0>        -0.0806
      9 C8          2.8501    7.5838    0.2474 C.ar      1 <0>        -0.1376
     10 C9          2.7687    6.1837    0.3069 C.ar      1 <0>         0.2138
     11 N1          3.8520    5.4313    0.3445 N.ar      1 <0>        -0.4543
     12 C10         5.0726    5.9723    0.3163 C.ar      1 <0>         0.1409
     13 C11         5.2214    7.3809    0.2565 C.ar      1 <0>        -0.0925
     14 C12         6.5081    7.9414    0.2334 C.ar      1 <0>        -0.1253
     15 C13         7.5987    7.1266    0.2678 C.ar      1 <0>        -0.0928
     16 C14         7.4552    5.7418    0.3266 C.ar      1 <0>        -0.0978
     17 C15         6.2234    5.1641    0.3509 C.ar      1 <0>        -0.0796
     18 C16         1.4356    5.5361    0.3342 C.ar      1 <0>        -0.0747
     19 C17         0.2757    6.3279    0.3008 C.ar      1 <0>        -0.1027
     20 C18        -0.9570    5.7591    0.3247 C.ar      1 <0>        -0.1019
     21 C19        -1.0844    4.3594    0.3836 C.ar      1 <0>        -0.0384
     22 C20        -2.3486    3.7469    0.4088 C.ar      1 <0>        -0.1129
     23 C21        -2.4399    2.3897    0.4607 C.ar      1 <0>        -0.1015
     24 C22        -1.2962    1.5943    0.5002 C.ar      1 <0>        -0.1131
     25 C23        -0.0548    2.1515    0.4773 C.ar      1 <0>        -0.0993
     26 C24         0.0793    3.5502    0.4183 C.ar      1 <0>        -0.0612
     27 C25         1.3442    4.1576    0.3927 C.ar      1 <0>        -0.0415
     28 O1          3.0020   10.2844    0.7017 O.3       1 <0>        -0.5417
     29 H2          7.9498   11.4753   -1.0248 H         1 <0>         0.1092
     30 H3          6.8327   10.2387   -1.6501 H         1 <0>         0.0790
     31 H4          7.0461   11.7715   -2.5294 H         1 <0>         0.0845
     32 H5          5.9773   13.0159   -0.7228 H         1 <0>         0.1348
     33 H6          5.8930   11.5518    0.2860 H         1 <0>         0.1276
     34 H7          5.4113   11.7906   -3.2701 H         1 <0>         0.1337
     35 H8          3.6382   11.6392   -3.2303 H         1 <0>         0.1284
     36 H9          3.4843   13.8840   -2.1653 H         1 <0>         0.0811
     37 H10         5.2557   14.0355   -2.2517 H         1 <0>         0.0804
     38 H11         4.2946   13.9635   -3.7481 H         1 <0>         0.1071
     39 H12         5.1985    9.6108   -1.7409 H         1 <0>         0.1463
     40 H13         3.4437    9.8857   -1.8565 H         1 <0>         0.1380
     41 H14         1.9484    8.1778    0.2217 H         1 <0>         0.1422
     42 H15         6.6326    9.0133    0.1875 H         1 <0>         0.1210
     43 H16         8.5880    7.5594    0.2493 H         1 <0>         0.1340
     44 H17         8.3358    5.1169    0.3530 H         1 <0>         0.1391
     45 H18         6.1296    4.0892    0.3969 H         1 <0>         0.1438
     46 H19         0.3656    7.4033    0.2559 H         1 <0>         0.1228
     47 H20        -1.8395    6.3811    0.2981 H         1 <0>         0.1335
     48 H21        -3.2441    4.3501    0.3825 H         1 <0>         0.1311
     49 H22        -3.4134    1.9224    0.4759 H         1 <0>         0.1286
     50 H23        -1.3965    0.5199    0.5452 H         1 <0>         0.1289
     51 H24         0.8229    1.5227    0.5047 H         1 <0>         0.1314
     52 H25         2.2389    3.5533    0.4189 H         1 <0>         0.1420
     53 H26         2.1900   10.0396    0.2370 H         1 <0>         0.3897
     54 N2          4.5580   11.5930   -1.3377 N.4       1 <0>        -0.3919
     55 H27         3.8135   12.0509   -0.7988 H         1 <0>         0.4336
@<TRIPOS>BOND
     1    1    2 1
     2    1   29 1
     3    1   30 1
     4    1   31 1
     5    2   32 1
     6    2   33 1
     7    2   54 1
     8    3    4 1
     9    3   34 1
    10    3   35 1
    11    3   54 1
    12    4   36 1
    13    4   37 1
    14    4   38 1
    15    5    6 1
    16    5   39 1
    17    5   40 1
    18    5   54 1
    19    6    7 1
    20    6    8 1
    21    6   28 1
    22    8   13 ar
    23    8    9 ar
    24    9   10 ar
    25    9   41 1
    26   10   11 ar
    27   10   18 1
    28   11   12 ar
    29   12   17 ar
    30   12   13 ar
    31   13   14 ar
    32   14   15 ar
    33   14   42 1
    34   15   16 ar
    35   15   43 1
    36   16   17 ar
    37   16   44 1
    38   17   45 1
    39   18   27 ar
    40   18   19 ar
    41   19   20 ar
    42   19   46 1
    43   20   21 ar
    44   20   47 1
    45   21   26 ar
    46   21   22 ar
    47   22   23 ar
    48   22   48 1
    49   23   24 ar
    50   23   49 1
    51   24   25 ar
    52   24   50 1
    53   25   26 ar
    54   25   51 1
    55   26   27 ar
    56   27   52 1
    57   28   53 1
    58   54   55 1
@<TRIPOS>MOLECULE
ZINC02215439
   49    51     0     0     0
SMALL
USER_CHARGES
N-[(2-hydroxy-6-methyl-3-quinolyl)methyl]-N-isobutyl-pyridine-4-carboxamide
@<TRIPOS>ATOM
      1 C1          6.1744    3.2732    1.3702 C.3       1 <0>        -0.1158
      2 C2          4.7729    2.7329    1.2477 C.ar      1 <0>        -0.0975
      3 C3          3.6895    3.5606    1.5336 C.ar      1 <0>        -0.0816
      4 C4          2.4113    3.1035    1.4341 C.ar      1 <0>        -0.1040
      5 C5          2.1739    1.7772    1.0340 C.ar      1 <0>         0.1753
      6 C6          3.2770    0.9377    0.7431 C.ar      1 <0>        -0.1382
      7 C7          4.5819    1.4420    0.8583 C.ar      1 <0>        -0.0839
      8 C8          3.0392   -0.3923    0.3424 C.ar      1 <0>        -0.0028
      9 C9          1.7471   -0.8174    0.2505 C.ar      1 <0>        -0.2374
     10 C10         0.7002    0.0624    0.5504 C.ar      1 <0>         0.3772
     11 N1          0.9280    1.3026    0.9258 N.ar      1 <0>        -0.5035
     12 O1         -0.5795   -0.3752    0.4548 O.3       1 <0>        -0.4612
     13 C11         1.4463   -2.2314   -0.1746 C.3       1 <0>         0.1461
     14 N2          1.1813   -3.0517    1.0100 N.am      1 <0>        -0.5965
     15 C12         2.2956   -3.6349    1.7612 C.3       1 <0>         0.0978
     16 C13         2.7224   -4.9484    1.1030 C.3       1 <0>        -0.1119
     17 C14         3.9773   -5.4823    1.7966 C.3       1 <0>        -0.1465
     18 C15         1.5938   -5.9735    1.2310 C.3       1 <0>        -0.1504
     19 C16        -0.0875   -3.2697    1.4086 C.2       1 <0>         0.5691
     20 O2         -1.0133   -2.8232    0.7604 O.2       1 <0>        -0.5174
     21 C17        -0.3537   -4.0537    2.6372 C.ar      1 <0>        -0.0728
     22 C18        -1.1380   -5.2104    2.5955 C.ar      1 <0>        -0.1249
     23 C19        -1.3573   -5.9134    3.7644 C.ar      1 <0>         0.1058
     24 N3         -0.8465   -5.5018    4.9077 N.ar      1 <0>        -0.4679
     25 C20        -0.1058   -4.4148    4.9918 C.ar      1 <0>         0.1055
     26 C21         0.1677   -3.6543    3.8715 C.ar      1 <0>        -0.1465
     27 H1          6.4824    3.7041    0.4174 H         1 <0>         0.0725
     28 H2          6.2012    4.0420    2.1423 H         1 <0>         0.0689
     29 H3          6.8535    2.4641    1.6393 H         1 <0>         0.0673
     30 H4          3.8668    4.5810    1.8402 H         1 <0>         0.1318
     31 H5          1.5826    3.7580    1.6603 H         1 <0>         0.1378
     32 H6          5.4297    0.8100    0.6386 H         1 <0>         0.1293
     33 H7          3.8589   -1.0572    0.1141 H         1 <0>         0.1432
     34 H8         -0.5838   -1.3308    0.1602 H         1 <0>         0.4059
     35 H9          0.5707   -2.2372   -0.8237 H         1 <0>         0.1012
     36 H10         2.3014   -2.6382   -0.7144 H         1 <0>         0.1082
     37 H11         3.1354   -2.9400    1.7637 H         1 <0>         0.0859
     38 H12         1.9809   -3.8279    2.7868 H         1 <0>         0.0940
     39 H13         2.9366   -4.7736    0.0485 H         1 <0>         0.0768
     40 H14         3.7632   -5.6570    2.8509 H         1 <0>         0.0578
     41 H15         4.2814   -6.4181    1.3276 H         1 <0>         0.0624
     42 H16         4.7814   -4.7521    1.7053 H         1 <0>         0.0583
     43 H17         0.7287   -5.6344    0.6613 H         1 <0>         0.0519
     44 H18         1.9303   -6.9348    0.8429 H         1 <0>         0.0611
     45 H19         1.3184   -6.0813    2.2801 H         1 <0>         0.0554
     46 H20        -1.5633   -5.5510    1.6631 H         1 <0>         0.1438
     47 H21        -1.9587   -6.8102    3.7418 H         1 <0>         0.1658
     48 H22         0.2924   -4.1143    5.9497 H         1 <0>         0.1647
     49 H23         0.7749   -2.7643    3.9479 H         1 <0>         0.1402
@<TRIPOS>BOND
     1    1    2 1
     2    1   27 1
     3    1   28 1
     4    1   29 1
     5    2    7 ar
     6    2    3 ar
     7    3    4 ar
     8    3   30 1
     9    4    5 ar
    10    4   31 1
    11    5    6 ar
    12    5   11 ar
    13    6    7 ar
    14    6    8 ar
    15    7   32 1
    16    8   33 1
    17    8    9 ar
    18    9   13 1
    19    9   10 ar
    20   10   11 ar
    21   10   12 1
    22   12   34 1
    23   13   14 1
    24   13   35 1
    25   13   36 1
    26   14   15 1
    27   14   19 am
    28   15   16 1
    29   15   37 1
    30   15   38 1
    31   16   17 1
    32   16   18 1
    33   16   39 1
    34   17   40 1
    35   17   41 1
    36   17   42 1
    37   18   43 1
    38   18   44 1
    39   18   45 1
    40   19   20 2
    41   19   21 1
    42   21   26 ar
    43   21   22 ar
    44   22   23 ar
    45   22   46 1
    46   23   24 ar
    47   23   47 1
    48   24   25 ar
    49   25   26 ar
    50   25   48 1
    51   26   49 1
@<TRIPOS>MOLECULE
ZINC02215934
   49    51     0     0     0
SMALL
USER_CHARGES
dimethylaminomethyl-diethyl-BLAHone
@<TRIPOS>ATOM
      1 C1          0.3524   -0.2270   -1.3701 C.3       1 <0>        -0.1553
      2 C2         -0.0740    0.2051    0.0344 C.3       1 <0>        -0.1674
      3 C3          0.3411    1.6590    0.2687 C.3       1 <0>        -0.0059
      4 C4         -0.1918    2.5230   -0.8690 C.3       1 <0>        -0.0762
      5 C5         -0.0014    3.9839   -0.5589 C.ar      1 <0>        -0.0428
      6 C6          0.3055    4.8760   -1.5658 C.ar      1 <0>        -0.1175
      7 C7          0.4632    6.2198   -1.2767 C.ar      1 <0>        -0.0843
      8 C8          0.3137    6.6791    0.0199 C.ar      1 <0>        -0.1287
      9 C9          0.0126    5.7955    1.0371 C.ar      1 <0>        -0.0697
     10 C10        -0.1714    4.4380    0.7411 C.ar      1 <0>        -0.0750
     11 C11        -0.4215    3.4669    1.8290 C.ar      1 <0>         0.2802
     12 C12        -0.2030    2.1219    1.5901 C.ar      1 <0>        -0.2954
     13 C13        -0.5580    1.1996    2.5889 C.ar      1 <0>         0.4606
     14 O1         -0.3965    0.0028    2.4142 O.3       1 <0>        -0.4349
     15 N1         -0.9701    1.6744    3.7844 N.ar      1 <0>        -0.5584
     16 H1         -0.0919   -0.1589    1.4755 H         1 <0>         0.4330
     17 C14        -1.0948    3.0024    3.9832 C.ar      1 <0>         0.3250
     18 N2         -0.8534    3.8658    3.0341 N.ar      1 <0>        -0.5806
     19 C15        -1.5248    3.5021    5.3383 C.3       1 <0>         0.0817
     20 C16        -2.7574    5.3701    4.4142 C.3       1 <0>        -0.0465
     21 C17        -1.8436    5.5109    6.6520 C.3       1 <0>        -0.0426
     22 C18         1.8682    1.7492    0.2932 C.3       1 <0>        -0.1185
     23 C19         2.4129    0.8718    1.4221 C.3       1 <0>        -0.1663
     24 H2         -0.2023    0.3484   -2.1112 H         1 <0>         0.0758
     25 H3          1.4203   -0.0487   -1.4965 H         1 <0>         0.0734
     26 H4          0.1430   -1.2884   -1.5028 H         1 <0>         0.0728
     27 H5          0.4089   -0.4341    0.7735 H         1 <0>         0.1091
     28 H6         -1.1562    0.1165    0.1289 H         1 <0>         0.0931
     29 H7          0.3412    2.2779   -1.7877 H         1 <0>         0.0993
     30 H8         -1.2540    2.3197   -1.0050 H         1 <0>         0.0884
     31 H9          0.4224    4.5251   -2.5805 H         1 <0>         0.1344
     32 H10         0.7042    6.9144   -2.0678 H         1 <0>         0.1329
     33 H11         0.4323    7.7305    0.2366 H         1 <0>         0.1317
     34 H12        -0.1053    6.1532    2.0493 H         1 <0>         0.1284
     35 H13        -2.4834    3.0562    5.6028 H         1 <0>         0.1577
     36 H14        -0.7775    3.2247    6.0818 H         1 <0>         0.1553
     37 H15        -3.6927    4.9426    4.7756 H         1 <0>         0.1176
     38 H16        -2.8346    6.4573    4.4050 H         1 <0>         0.1213
     39 H17        -2.5603    5.0112    3.4041 H         1 <0>         0.1332
     40 H18        -0.9821    5.2546    7.2686 H         1 <0>         0.1223
     41 H19        -1.9401    6.5952    6.5953 H         1 <0>         0.1259
     42 H20        -2.7457    5.0885    7.0944 H         1 <0>         0.1252
     43 H21         2.2679    1.4041   -0.6603 H         1 <0>         0.0858
     44 H22         2.1685    2.7837    0.4599 H         1 <0>         0.0748
     45 H23         1.9721    1.1832    2.3691 H         1 <0>         0.0485
     46 H24         2.1579   -0.1700    1.2278 H         1 <0>         0.0563
     47 H25         3.4965    0.9771    1.4736 H         1 <0>         0.0719
     48 N3         -1.6344    4.9754    5.2904 N.4       1 <0>        -0.3872
     49 H26        -0.7627    5.3624    4.9100 H         1 <0>         0.4375
@<TRIPOS>BOND
     1    1    2 1
     2    1   24 1
     3    1   25 1
     4    1   26 1
     5    2    3 1
     6    2   27 1
     7    2   28 1
     8    3   12 1
     9    3    4 1
    10    3   22 1
    11    4    5 1
    12    4   29 1
    13    4   30 1
    14    5   10 ar
    15    5    6 ar
    16    6    7 ar
    17    6   31 1
    18    7    8 ar
    19    7   32 1
    20    8    9 ar
    21    8   33 1
    22    9   10 ar
    23    9   34 1
    24   10   11 1
    25   11   12 ar
    26   11   18 ar
    27   12   13 ar
    28   13   15 ar
    29   13   14 1
    30   14   16 1
    31   15   17 ar
    32   17   19 1
    33   17   18 ar
    34   19   35 1
    35   19   36 1
    36   19   48 1
    37   20   37 1
    38   20   38 1
    39   20   39 1
    40   20   48 1
    41   21   40 1
    42   21   41 1
    43   21   42 1
    44   21   48 1
    45   22   23 1
    46   22   43 1
    47   22   44 1
    48   23   45 1
    49   23   46 1
    50   23   47 1
    51   48   49 1
@<TRIPOS>MOLECULE
ZINC02216035
   55    58     0     0     0
SMALL
USER_CHARGES
2-diethylamino-1-[2-(2-naphthyl)-4-quinolyl]-ethanol
@<TRIPOS>ATOM
      1 C1          7.0053   11.3096   -1.5429 C.3       1 <0>        -0.1912
      2 C2          5.8645   11.9318   -0.7352 C.3       1 <0>        -0.0175
      3 C3          4.5056   12.0745   -2.7341 C.3       1 <0>        -0.0127
      4 C4          4.3757   13.5990   -2.7241 C.3       1 <0>        -0.1881
      5 C5          4.3482   10.1304   -1.2995 C.3       1 <0>        -0.0450
      6 C6          4.1837    9.6933    0.1575 C.3       1 <0>         0.1329
      7 H1          5.0504   10.0170    0.7339 H         1 <0>         0.1364
      8 C7          4.0699    8.1920    0.2218 C.ar      1 <0>        -0.0806
      9 C8          2.8501    7.5838    0.2474 C.ar      1 <0>        -0.1376
     10 C9          2.7687    6.1837    0.3069 C.ar      1 <0>         0.2138
     11 N1          3.8520    5.4313    0.3445 N.ar      1 <0>        -0.4543
     12 C10         5.0726    5.9723    0.3163 C.ar      1 <0>         0.1409
     13 C11         5.2214    7.3809    0.2565 C.ar      1 <0>        -0.0925
     14 C12         6.5081    7.9414    0.2334 C.ar      1 <0>        -0.1253
     15 C13         7.5987    7.1266    0.2678 C.ar      1 <0>        -0.0928
     16 C14         7.4552    5.7418    0.3266 C.ar      1 <0>        -0.0978
     17 C15         6.2234    5.1641    0.3509 C.ar      1 <0>        -0.0796
     18 C16         1.4356    5.5361    0.3342 C.ar      1 <0>        -0.0747
     19 C17         0.2757    6.3279    0.3008 C.ar      1 <0>        -0.1027
     20 C18        -0.9570    5.7591    0.3247 C.ar      1 <0>        -0.1019
     21 C19        -1.0844    4.3594    0.3836 C.ar      1 <0>        -0.0384
     22 C20        -2.3486    3.7469    0.4088 C.ar      1 <0>        -0.1129
     23 C21        -2.4399    2.3897    0.4607 C.ar      1 <0>        -0.1015
     24 C22        -1.2962    1.5943    0.5002 C.ar      1 <0>        -0.1131
     25 C23        -0.0548    2.1515    0.4773 C.ar      1 <0>        -0.0993
     26 C24         0.0793    3.5502    0.4183 C.ar      1 <0>        -0.0612
     27 C25         1.3442    4.1576    0.3927 C.ar      1 <0>        -0.0415
     28 O1          3.0020   10.2844    0.7017 O.3       1 <0>        -0.5417
     29 H2          7.9498   11.4753   -1.0248 H         1 <0>         0.1092
     30 H3          6.8327   10.2387   -1.6501 H         1 <0>         0.0790
     31 H4          7.0461   11.7715   -2.5294 H         1 <0>         0.0845
     32 H5          5.9773   13.0159   -0.7228 H         1 <0>         0.1348
     33 H6          5.8930   11.5518    0.2860 H         1 <0>         0.1276
     34 H7          5.4113   11.7906   -3.2701 H         1 <0>         0.1337
     35 H8          3.6382   11.6392   -3.2303 H         1 <0>         0.1284
     36 H9          3.4843   13.8840   -2.1653 H         1 <0>         0.0811
     37 H10         5.2557   14.0355   -2.2517 H         1 <0>         0.0804
     38 H11         4.2946   13.9635   -3.7481 H         1 <0>         0.1071
     39 H12         5.1985    9.6108   -1.7409 H         1 <0>         0.1463
     40 H13         3.4437    9.8857   -1.8565 H         1 <0>         0.1380
     41 H14         1.9484    8.1778    0.2217 H         1 <0>         0.1422
     42 H15         6.6326    9.0133    0.1875 H         1 <0>         0.1210
     43 H16         8.5880    7.5594    0.2493 H         1 <0>         0.1340
     44 H17         8.3358    5.1169    0.3530 H         1 <0>         0.1391
     45 H18         6.1296    4.0892    0.3969 H         1 <0>         0.1438
     46 H19         0.3656    7.4033    0.2559 H         1 <0>         0.1228
     47 H20        -1.8395    6.3811    0.2981 H         1 <0>         0.1335
     48 H21        -3.2441    4.3501    0.3825 H         1 <0>         0.1311
     49 H22        -3.4134    1.9224    0.4759 H         1 <0>         0.1286
     50 H23        -1.3965    0.5199    0.5452 H         1 <0>         0.1289
     51 H24         0.8229    1.5227    0.5047 H         1 <0>         0.1314
     52 H25         2.2389    3.5533    0.4189 H         1 <0>         0.1420
     53 H26         2.1900   10.0396    0.2370 H         1 <0>         0.3897
     54 N2          4.5580   11.5930   -1.3377 N.4       1 <0>        -0.3919
     55 H27         3.8135   12.0509   -0.7988 H         1 <0>         0.4336
@<TRIPOS>BOND
     1    1    2 1
     2    1   29 1
     3    1   30 1
     4    1   31 1
     5    2   32 1
     6    2   33 1
     7    2   54 1
     8    3    4 1
     9    3   34 1
    10    3   35 1
    11    3   54 1
    12    4   36 1
    13    4   37 1
    14    4   38 1
    15    5    6 1
    16    5   39 1
    17    5   40 1
    18    5   54 1
    19    6    7 1
    20    6    8 1
    21    6   28 1
    22    8   13 ar
    23    8    9 ar
    24    9   10 ar
    25    9   41 1
    26   10   11 ar
    27   10   18 1
    28   11   12 ar
    29   12   17 ar
    30   12   13 ar
    31   13   14 ar
    32   14   15 ar
    33   14   42 1
    34   15   16 ar
    35   15   43 1
    36   16   17 ar
    37   16   44 1
    38   17   45 1
    39   18   27 ar
    40   18   19 ar
    41   19   20 ar
    42   19   46 1
    43   20   21 ar
    44   20   47 1
    45   21   26 ar
    46   21   22 ar
    47   22   23 ar
    48   22   48 1
    49   23   24 ar
    50   23   49 1
    51   24   25 ar
    52   24   50 1
    53   25   26 ar
    54   25   51 1
    55   26   27 ar
    56   27   52 1
    57   28   53 1
    58   54   55 1
@<TRIPOS>MOLECULE
ZINC05342971
   43    45     0     0     0
SMALL
USER_CHARGES
5-(2-hydroxy-4-methyl-phenyl)-N-(p-tolylmethyl)-2H-pyrazole-3-carboxamide
@<TRIPOS>ATOM
      1 C1          1.2289   -2.1857   -0.0219 C.3       1 <0>        -0.1201
      2 C2          1.2084   -0.6789   -0.0136 C.ar      1 <0>        -0.0734
      3 C3          0.0021   -0.0041    0.0020 C.ar      1 <0>        -0.1227
      4 C4         -0.0167    1.3781    0.0096 C.ar      1 <0>        -0.0948
      5 C5          1.1709    2.0855    0.0021 C.ar      1 <0>        -0.1222
      6 C6          2.3773    1.4107   -0.0136 C.ar      1 <0>        -0.0949
      7 C7          2.3961    0.0285   -0.0212 C.ar      1 <0>        -0.1228
      8 C8          1.1505    3.5924    0.0099 C.3       1 <0>         0.1638
      9 N1          1.1568    4.0736    1.3936 N.am      1 <0>        -0.7242
     10 C9          1.1412    5.3973    1.6467 C.2       1 <0>         0.5929
     11 O1          1.1218    6.1923    0.7265 O.2       1 <0>        -0.5153
     12 C10         1.1475    5.8809    3.0370 C.2       1 <0>        -0.0419
     13 C11         1.1390    7.1980    3.4547 C.2       1 <0>        -0.1353
     14 C12         1.1470    7.1417    4.8606 C.2       1 <0>         0.0666
     15 N2          1.1681    5.8719    5.2072 N.2       1 <0>        -0.2333
     16 N3          1.1689    5.1158    4.1692 N.pl3     1 <0>        -0.3785
     17 H1          1.1831    4.1161    4.1867 H         1 <0>         0.4515
     18 C13         1.1402    8.3029    5.7847 C.ar      1 <0>        -0.0446
     19 C14         1.1234    9.5999    5.2779 C.ar      1 <0>        -0.0800
     20 C15         1.1117   10.6767    6.1414 C.ar      1 <0>        -0.1284
     21 C16         1.1273   10.4725    7.5099 C.ar      1 <0>        -0.0630
     22 C17         1.1498    9.1896    8.0231 C.ar      1 <0>        -0.1486
     23 C18         1.1563    8.0996    7.1673 C.ar      1 <0>         0.1342
     24 O2          1.1789    6.8379    7.6706 O.3       1 <0>        -0.4816
     25 C19         1.1202   11.6544    8.4448 C.3       1 <0>        -0.1182
     26 H2          1.2236   -2.5435   -1.0515 H         1 <0>         0.0739
     27 H3          2.1288   -2.5396    0.4811 H         1 <0>         0.0685
     28 H4          0.3491   -2.5639    0.4987 H         1 <0>         0.0685
     29 H5         -0.9258   -0.5567    0.0079 H         1 <0>         0.1254
     30 H6         -0.9592    1.9054    0.0170 H         1 <0>         0.1251
     31 H7          3.3052    1.9634   -0.0192 H         1 <0>         0.1250
     32 H8          3.3386   -0.4987   -0.0327 H         1 <0>         0.1253
     33 H9          2.0306    3.9704   -0.5103 H         1 <0>         0.0820
     34 H10         0.2509    3.9462   -0.4937 H         1 <0>         0.0819
     35 H11         1.1723    3.4396    2.1276 H         1 <0>         0.3968
     36 H12         1.1265    8.0821    2.8344 H         1 <0>         0.1677
     37 H13         1.1158    9.7630    4.2103 H         1 <0>         0.1320
     38 H14         1.0946   11.6821    5.7475 H         1 <0>         0.1299
     39 H15         1.1626    9.0363    9.0921 H         1 <0>         0.1313
     40 H16         2.0687    6.4850    7.8079 H         1 <0>         0.3889
     41 H17         2.1460   11.9533    8.6603 H         1 <0>         0.0740
     42 H18         0.5905   12.4843    7.9772 H         1 <0>         0.0701
     43 H19         0.6190   11.3803    9.3732 H         1 <0>         0.0685
@<TRIPOS>BOND
     1    1    2 1
     2    1   26 1
     3    1   27 1
     4    1   28 1
     5    2    7 ar
     6    2    3 ar
     7    3    4 ar
     8    3   29 1
     9    4    5 ar
    10    4   30 1
    11    5    6 ar
    12    5    8 1
    13    6    7 ar
    14    6   31 1
    15    7   32 1
    16    8    9 1
    17    8   33 1
    18    8   34 1
    19    9   10 am
    20    9   35 1
    21   10   11 2
    22   10   12 1
    23   12   16 1
    24   12   13 2
    25   13   14 1
    26   13   36 1
    27   14   15 2
    28   14   18 1
    29   15   16 1
    30   16   17 1
    31   18   23 ar
    32   18   19 ar
    33   19   20 ar
    34   19   37 1
    35   20   21 ar
    36   20   38 1
    37   21   22 ar
    38   21   25 1
    39   22   23 ar
    40   22   39 1
    41   23   24 1
    42   24   40 1
    43   25   41 1
    44   25   42 1
    45   25   43 1
@<TRIPOS>MOLECULE
ZINC05342973
   43    45     0     0     0
SMALL
USER_CHARGES
4-(2-hydroxyethylaminomethylene)-2-(p-tolyl)isoquinoline-1,3-dione
@<TRIPOS>ATOM
      1 C1         -2.5313   10.9730    7.4093 C.3       1 <0>        -0.1244
      2 C2         -2.1422    9.6542    6.7923 C.ar      1 <0>        -0.0574
      3 C3         -3.0509    8.6124    6.7606 C.ar      1 <0>        -0.1083
      4 C4         -2.6972    7.4025    6.1963 C.ar      1 <0>        -0.0788
      5 C5         -1.4276    7.2328    5.6603 C.ar      1 <0>         0.0778
      6 C6         -0.5154    8.2790    5.6987 C.ar      1 <0>        -0.0858
      7 C7         -0.8771    9.4884    6.2593 C.ar      1 <0>        -0.1101
      8 N1         -1.0657    6.0068    5.0871 N.am      1 <0>        -0.4970
      9 C8         -1.1620    4.8953    5.8347 C.2       1 <0>         0.5541
     10 O1         -1.5574    4.9786    6.9821 O.2       1 <0>        -0.4382
     11 C9         -0.7977    3.5811    5.2905 C.ar      1 <0>        -0.1134
     12 C10        -0.8958    2.4222    6.0614 C.ar      1 <0>        -0.0240
     13 C11        -0.5620    1.2048    5.5083 C.ar      1 <0>        -0.0952
     14 C12        -0.1118    1.1210    4.1987 C.ar      1 <0>        -0.0550
     15 C13        -0.0017    2.2556    3.4211 C.ar      1 <0>        -0.1506
     16 C14        -0.3455    3.4909    3.9575 C.ar      1 <0>        -0.0649
     17 C15        -0.2467    4.7365    3.1684 C.3       1 <0>        -0.1091
     18 C16         0.1936    4.7163    1.8634 C.2       1 <0>         0.3843
     19 C17         1.5714    3.6045    0.0825 C.3       1 <0>         0.0716
     20 C18         2.4782    2.3749    0.0035 C.3       1 <0>         0.0462
     21 O2          1.7005    1.1949    0.2154 O.3       1 <0>        -0.5791
     22 C19        -0.6374    5.9946    3.8144 C.2       1 <0>         0.5509
     23 O3         -0.5730    7.0379    3.1903 O.2       1 <0>        -0.4571
     24 H1         -2.2830   10.9649    8.4706 H         1 <0>         0.0800
     25 H2         -1.9889   11.7792    6.9154 H         1 <0>         0.0733
     26 H3         -3.6033   11.1286    7.2881 H         1 <0>         0.0740
     27 H4         -4.0384    8.7451    7.1774 H         1 <0>         0.1377
     28 H5         -3.4072    6.5890    6.1722 H         1 <0>         0.1293
     29 H6          0.4743    8.1486    5.2866 H         1 <0>         0.1238
     30 H7         -0.1696   10.3040    6.2851 H         1 <0>         0.1363
     31 H8         -1.2451    2.4772    7.0819 H         1 <0>         0.1602
     32 H9         -0.6423    0.3075    6.1040 H         1 <0>         0.1546
     33 H10         0.1544    0.1598    3.7844 H         1 <0>         0.1524
     34 H11         0.3498    2.1842    2.4024 H         1 <0>         0.1485
     35 H12        -0.1292    5.4812    1.1726 H         1 <0>         0.2422
     36 H13         0.6617    5.1367    3.2896 H         1 <0>         0.1634
     37 H14         2.1462    4.4965   -0.1665 H         1 <0>         0.1385
     38 H15         0.7477    3.4944   -0.6229 H         1 <0>         0.1337
     39 H16         3.2507    2.4432    0.7694 H         1 <0>         0.0685
     40 H17         2.9452    2.3303   -0.9804 H         1 <0>         0.0967
     41 H18         2.2118    0.3750    0.1790 H         1 <0>         0.4052
     42 N2          1.0549    3.6832    1.4926 N.pl3     1 <0>        -0.6097
     43 H19         1.3361    2.9767    2.1825 H         1 <0>         0.4549
@<TRIPOS>BOND
     1    1    2 1
     2    1   24 1
     3    1   25 1
     4    1   26 1
     5    2    7 ar
     6    2    3 ar
     7    3    4 ar
     8    3   27 1
     9    4    5 ar
    10    4   28 1
    11    5    6 ar
    12    5    8 1
    13    6    7 ar
    14    6   29 1
    15    7   30 1
    16    8   22 am
    17    8    9 am
    18    9   10 2
    19    9   11 1
    20   11   16 ar
    21   11   12 ar
    22   12   13 ar
    23   12   31 1
    24   13   14 ar
    25   13   32 1
    26   14   15 ar
    27   14   33 1
    28   15   16 ar
    29   15   34 1
    30   16   17 1
    31   17   22 1
    32   17   36 1
    33   17   18 1
    34   18   35 1
    35   18   42 2
    36   19   20 1
    37   19   37 1
    38   19   38 1
    39   19   42 1
    40   20   21 1
    41   20   39 1
    42   20   40 1
    43   21   41 1
    44   22   23 2
    45   42   43 1
@<TRIPOS>MOLECULE
ZINC02216508
   55    58     0     0     0
SMALL
USER_CHARGES
2-diethylamino-1-[2-(2-naphthyl)-4-quinolyl]-ethanol
@<TRIPOS>ATOM
      1 C1          7.0053   11.3096   -1.5429 C.3       1 <0>        -0.1912
      2 C2          5.8645   11.9318   -0.7352 C.3       1 <0>        -0.0175
      3 C3          4.5056   12.0745   -2.7341 C.3       1 <0>        -0.0127
      4 C4          4.3757   13.5990   -2.7241 C.3       1 <0>        -0.1881
      5 C5          4.3482   10.1304   -1.2995 C.3       1 <0>        -0.0450
      6 C6          4.1837    9.6933    0.1575 C.3       1 <0>         0.1329
      7 H1          5.0504   10.0170    0.7339 H         1 <0>         0.1364
      8 C7          4.0699    8.1920    0.2218 C.ar      1 <0>        -0.0806
      9 C8          2.8501    7.5838    0.2474 C.ar      1 <0>        -0.1376
     10 C9          2.7687    6.1837    0.3069 C.ar      1 <0>         0.2138
     11 N1          3.8520    5.4313    0.3445 N.ar      1 <0>        -0.4543
     12 C10         5.0726    5.9723    0.3163 C.ar      1 <0>         0.1409
     13 C11         5.2214    7.3809    0.2565 C.ar      1 <0>        -0.0925
     14 C12         6.5081    7.9414    0.2334 C.ar      1 <0>        -0.1253
     15 C13         7.5987    7.1266    0.2678 C.ar      1 <0>        -0.0928
     16 C14         7.4552    5.7418    0.3266 C.ar      1 <0>        -0.0978
     17 C15         6.2234    5.1641    0.3509 C.ar      1 <0>        -0.0796
     18 C16         1.4356    5.5361    0.3342 C.ar      1 <0>        -0.0747
     19 C17         0.2757    6.3279    0.3008 C.ar      1 <0>        -0.1027
     20 C18        -0.9570    5.7591    0.3247 C.ar      1 <0>        -0.1019
     21 C19        -1.0844    4.3594    0.3836 C.ar      1 <0>        -0.0384
     22 C20        -2.3486    3.7469    0.4088 C.ar      1 <0>        -0.1129
     23 C21        -2.4399    2.3897    0.4607 C.ar      1 <0>        -0.1015
     24 C22        -1.2962    1.5943    0.5002 C.ar      1 <0>        -0.1131
     25 C23        -0.0548    2.1515    0.4773 C.ar      1 <0>        -0.0993
     26 C24         0.0793    3.5502    0.4183 C.ar      1 <0>        -0.0612
     27 C25         1.3442    4.1576    0.3927 C.ar      1 <0>        -0.0415
     28 O1          3.0020   10.2844    0.7017 O.3       1 <0>        -0.5417
     29 H2          7.9498   11.4753   -1.0248 H         1 <0>         0.1092
     30 H3          6.8327   10.2387   -1.6501 H         1 <0>         0.0790
     31 H4          7.0461   11.7715   -2.5294 H         1 <0>         0.0845
     32 H5          5.9773   13.0159   -0.7228 H         1 <0>         0.1348
     33 H6          5.8930   11.5518    0.2860 H         1 <0>         0.1276
     34 H7          5.4113   11.7906   -3.2701 H         1 <0>         0.1337
     35 H8          3.6382   11.6392   -3.2303 H         1 <0>         0.1284
     36 H9          3.4843   13.8840   -2.1653 H         1 <0>         0.0811
     37 H10         5.2557   14.0355   -2.2517 H         1 <0>         0.0804
     38 H11         4.2946   13.9635   -3.7481 H         1 <0>         0.1071
     39 H12         5.1985    9.6108   -1.7409 H         1 <0>         0.1463
     40 H13         3.4437    9.8857   -1.8565 H         1 <0>         0.1380
     41 H14         1.9484    8.1778    0.2217 H         1 <0>         0.1422
     42 H15         6.6326    9.0133    0.1875 H         1 <0>         0.1210
     43 H16         8.5880    7.5594    0.2493 H         1 <0>         0.1340
     44 H17         8.3358    5.1169    0.3530 H         1 <0>         0.1391
     45 H18         6.1296    4.0892    0.3969 H         1 <0>         0.1438
     46 H19         0.3656    7.4033    0.2559 H         1 <0>         0.1228
     47 H20        -1.8395    6.3811    0.2981 H         1 <0>         0.1335
     48 H21        -3.2441    4.3501    0.3825 H         1 <0>         0.1311
     49 H22        -3.4134    1.9224    0.4759 H         1 <0>         0.1286
     50 H23        -1.3965    0.5199    0.5452 H         1 <0>         0.1289
     51 H24         0.8229    1.5227    0.5047 H         1 <0>         0.1314
     52 H25         2.2389    3.5533    0.4189 H         1 <0>         0.1420
     53 H26         2.1900   10.0396    0.2370 H         1 <0>         0.3897
     54 N2          4.5580   11.5930   -1.3377 N.4       1 <0>        -0.3919
     55 H27         3.8135   12.0509   -0.7988 H         1 <0>         0.4336
@<TRIPOS>BOND
     1    1    2 1
     2    1   29 1
     3    1   30 1
     4    1   31 1
     5    2   32 1
     6    2   33 1
     7    2   54 1
     8    3    4 1
     9    3   34 1
    10    3   35 1
    11    3   54 1
    12    4   36 1
    13    4   37 1
    14    4   38 1
    15    5    6 1
    16    5   39 1
    17    5   40 1
    18    5   54 1
    19    6    7 1
    20    6    8 1
    21    6   28 1
    22    8   13 ar
    23    8    9 ar
    24    9   10 ar
    25    9   41 1
    26   10   11 ar
    27   10   18 1
    28   11   12 ar
    29   12   17 ar
    30   12   13 ar
    31   13   14 ar
    32   14   15 ar
    33   14   42 1
    34   15   16 ar
    35   15   43 1
    36   16   17 ar
    37   16   44 1
    38   17   45 1
    39   18   27 ar
    40   18   19 ar
    41   19   20 ar
    42   19   46 1
    43   20   21 ar
    44   20   47 1
    45   21   26 ar
    46   21   22 ar
    47   22   23 ar
    48   22   48 1
    49   23   24 ar
    50   23   49 1
    51   24   25 ar
    52   24   50 1
    53   25   26 ar
    54   25   51 1
    55   26   27 ar
    56   27   52 1
    57   28   53 1
    58   54   55 1
@<TRIPOS>MOLECULE
ZINC02217770
   47    48     0     0     0
SMALL
USER_CHARGES
N-[(2-hydroxy-6-methyl-3-quinolyl)methyl]-N-isobutyl-2-methoxy-acetamide
@<TRIPOS>ATOM
      1 C1          7.5252    3.9150   -5.6905 C.3       1 <0>        -0.1150
      2 C2          6.4644    3.0393   -5.0748 C.ar      1 <0>        -0.0999
      3 C3          6.1048    1.8494   -5.7037 C.ar      1 <0>        -0.0825
      4 C4          5.1640    1.0266   -5.1640 C.ar      1 <0>        -0.1046
      5 C5          4.5150    1.3962   -3.9734 C.ar      1 <0>         0.1762
      6 C6          4.8780    2.6093   -3.3387 C.ar      1 <0>        -0.1406
      7 C7          5.8701    3.4213   -3.9104 C.ar      1 <0>        -0.0834
      8 C8          4.2320    2.9761   -2.1413 C.ar      1 <0>        -0.0047
      9 C9          3.2764    2.1419   -1.6416 C.ar      1 <0>        -0.2375
     10 C10         2.9462    0.9679   -2.3296 C.ar      1 <0>         0.3808
     11 N1          3.5658    0.6211   -3.4372 N.ar      1 <0>        -0.5071
     12 O1          1.9904    0.1509   -1.8228 O.3       1 <0>        -0.4630
     13 C11         2.5633    2.4922   -0.3611 C.3       1 <0>         0.1488
     14 N2          1.2713    3.1079   -0.6743 N.am      1 <0>        -0.6065
     15 C12         1.1953    4.5404   -0.9711 C.3       1 <0>         0.1050
     16 C13         1.1495    5.3308    0.3381 C.3       1 <0>        -0.1144
     17 C14         1.2044    6.8288    0.0318 C.3       1 <0>        -0.1477
     18 C15        -0.1482    5.0098    1.0824 C.3       1 <0>        -0.1594
     19 C16         0.1528    2.3562   -0.6893 C.2       1 <0>         0.5226
     20 O2          0.2252    1.1576   -0.5189 O.2       1 <0>        -0.5032
     21 C17        -1.1873    3.0043   -0.9242 C.3       1 <0>         0.0317
     22 O3         -2.2122    2.0094   -0.8785 O.3       1 <0>        -0.3650
     23 C18        -3.5293    2.5215   -1.0904 C.3       1 <0>         0.0289
     24 H1          8.5033    3.6257   -5.3059 H         1 <0>         0.0720
     25 H2          7.5110    3.7959   -6.7737 H         1 <0>         0.0684
     26 H3          7.3287    4.9566   -5.4368 H         1 <0>         0.0667
     27 H4          6.5906    1.5682   -6.6263 H         1 <0>         0.1310
     28 H5          4.9074    0.1001   -5.6561 H         1 <0>         0.1373
     29 H6          6.1574    4.3458   -3.4319 H         1 <0>         0.1284
     30 H7          4.4871    3.8941   -1.6328 H         1 <0>         0.1420
     31 H8          1.6183    0.5524   -0.9859 H         1 <0>         0.4045
     32 H9          3.1700    3.1928    0.2127 H         1 <0>         0.1066
     33 H10         2.4021    1.5871    0.2244 H         1 <0>         0.0990
     34 H11         2.0721    4.8396   -1.5455 H         1 <0>         0.0871
     35 H12         0.2946    4.7441   -1.5503 H         1 <0>         0.0863
     36 H13         2.0019    5.0554    0.9589 H         1 <0>         0.0795
     37 H14         0.3520    7.1043   -0.5890 H         1 <0>         0.0585
     38 H15         1.1717    7.3920    0.9645 H         1 <0>         0.0627
     39 H16         2.1289    7.0576   -0.4985 H         1 <0>         0.0590
     40 H17        -0.2027    3.9379    1.2719 H         1 <0>         0.0571
     41 H18        -0.1660    5.5477    2.0303 H         1 <0>         0.0646
     42 H19        -1.0004    5.3152    0.4753 H         1 <0>         0.0599
     43 H20        -1.3706    3.7505   -0.1512 H         1 <0>         0.1003
     44 H21        -1.1917    3.4856   -1.9022 H         1 <0>         0.0831
     45 H22        -3.5823    2.9928   -2.0718 H         1 <0>         0.0454
     46 H23        -4.2491    1.7046   -1.0404 H         1 <0>         0.0954
     47 H24        -3.7610    3.2577   -0.3207 H         1 <0>         0.0456
@<TRIPOS>BOND
     1    1    2 1
     2    1   24 1
     3    1   25 1
     4    1   26 1
     5    2    7 ar
     6    2    3 ar
     7    3    4 ar
     8    3   27 1
     9    4    5 ar
    10    4   28 1
    11    5    6 ar
    12    5   11 ar
    13    6    7 ar
    14    6    8 ar
    15    7   29 1
    16    8   30 1
    17    8    9 ar
    18    9   13 1
    19    9   10 ar
    20   10   11 ar
    21   10   12 1
    22   12   31 1
    23   13   14 1
    24   13   32 1
    25   13   33 1
    26   14   15 1
    27   14   19 am
    28   15   16 1
    29   15   34 1
    30   15   35 1
    31   16   17 1
    32   16   18 1
    33   16   36 1
    34   17   37 1
    35   17   38 1
    36   17   39 1
    37   18   40 1
    38   18   41 1
    39   18   42 1
    40   19   20 2
    41   19   21 1
    42   21   22 1
    43   21   43 1
    44   21   44 1
    45   22   23 1
    46   23   45 1
    47   23   46 1
    48   23   47 1
@<TRIPOS>MOLECULE
ZINC05343022
   43    46     0     0     0
SMALL
USER_CHARGES
N-[2-(1H-benzoimidazol-2-yl)-5-methyl-pyrazol-3-yl]-3-methoxy-benzamide
@<TRIPOS>ATOM
      1 C1         -3.4132    3.4296   10.4840 C.3       1 <0>        -0.0772
      2 C2         -2.2680    2.6436    9.8996 C.2       1 <0>         0.1239
      3 C3         -2.0107    2.4661    8.5366 C.2       1 <0>        -0.2649
      4 C4         -0.8927    1.6991    8.4187 C.2       1 <0>         0.3497
      5 N1         -0.4674    1.4017    9.6793 N.pl3     1 <0>        -0.3328
      6 N2         -1.3473    2.0126   10.5820 N.2       1 <0>        -0.2907
      7 C5          0.6416    0.6327   10.0096 C.2       1 <0>         0.5389
      8 N3          1.0477    0.3486   11.2813 N.pl3     1 <0>        -0.5886
      9 H1          0.6075    0.6524   12.1262 H         1 <0>         0.4400
     10 C6          2.1817   -0.4378   11.1839 C.ar      1 <0>         0.0564
     11 C7          3.0274   -1.0267   12.1125 C.ar      1 <0>        -0.1044
     12 C8          4.1042   -1.7738   11.6834 C.ar      1 <0>        -0.0985
     13 C9          4.3488   -1.9404   10.3279 C.ar      1 <0>        -0.1177
     14 C10         3.5205   -1.3635    9.3922 C.ar      1 <0>        -0.0680
     15 C11         2.4245   -0.6036    9.8100 C.ar      1 <0>         0.0705
     16 N4          1.4480    0.0690    9.1482 N.2       1 <0>        -0.5220
     17 N5         -0.2963    1.2886    7.2291 N.am      1 <0>        -0.6371
     18 C12        -0.8300    1.6538    6.0466 C.2       1 <0>         0.5702
     19 O1         -1.8320    2.3416    6.0184 O.2       1 <0>        -0.4963
     20 C13        -0.1969    1.2180    4.7839 C.ar      1 <0>        -0.0975
     21 C14         0.9537    0.4277    4.8134 C.ar      1 <0>        -0.1206
     22 C15         1.5417    0.0224    3.6330 C.ar      1 <0>        -0.0826
     23 C16         0.9918    0.3918    2.4190 C.ar      1 <0>        -0.1772
     24 C17        -0.1488    1.1821    2.3797 C.ar      1 <0>         0.1223
     25 C18        -0.7472    1.5946    3.5585 C.ar      1 <0>        -0.0854
     26 O2         -0.6816    1.5467    1.1837 O.3       1 <0>        -0.3126
     27 C19        -0.0127    1.0858    0.0080 C.3       1 <0>         0.0250
     28 H2         -4.2706    2.7717   10.6256 H         1 <0>         0.0870
     29 H3         -3.1138    3.8480   11.4449 H         1 <0>         0.0787
     30 H4         -3.6836    4.2377    9.8043 H         1 <0>         0.0883
     31 H5         -2.5954    2.8669    7.7218 H         1 <0>         0.1899
     32 H6          2.8426   -0.9009   13.1692 H         1 <0>         0.1278
     33 H7          4.7618   -2.2318   12.4074 H         1 <0>         0.1351
     34 H8          5.1956   -2.5275   10.0044 H         1 <0>         0.1348
     35 H9          3.7166   -1.4980    8.3387 H         1 <0>         0.1338
     36 H10         0.5032    0.7398    7.2516 H         1 <0>         0.4290
     37 H11         1.3831    0.1335    5.7597 H         1 <0>         0.1312
     38 H12         2.4315   -0.5892    3.6570 H         1 <0>         0.1365
     39 H13         1.4537    0.0675    1.4982 H         1 <0>         0.1364
     40 H14        -1.6369    2.2061    3.5293 H         1 <0>         0.1488
     41 H15         0.0021   -0.0041    0.0020 H         1 <0>         0.0579
     42 H16         1.0099    1.4631    0.0003 H         1 <0>         0.0580
     43 H17        -0.5399    1.4469   -0.8751 H         1 <0>         0.1043
@<TRIPOS>BOND
     1    1    2 1
     2    1   28 1
     3    1   29 1
     4    1   30 1
     5    2    6 2
     6    2    3 1
     7    3    4 2
     8    3   31 1
     9    4    5 1
    10    4   17 1
    11    5    6 1
    12    5    7 1
    13    7   16 2
    14    7    8 1
    15    8    9 1
    16    8   10 1
    17   10   15 ar
    18   10   11 ar
    19   11   12 ar
    20   11   32 1
    21   12   13 ar
    22   12   33 1
    23   13   14 ar
    24   13   34 1
    25   14   15 ar
    26   14   35 1
    27   15   16 1
    28   17   18 am
    29   17   36 1
    30   18   19 2
    31   18   20 1
    32   20   25 ar
    33   20   21 ar
    34   21   22 ar
    35   21   37 1
    36   22   23 ar
    37   22   38 1
    38   23   24 ar
    39   23   39 1
    40   24   25 ar
    41   24   26 1
    42   25   40 1
    43   26   27 1
    44   27   41 1
    45   27   42 1
    46   27   43 1
@<TRIPOS>MOLECULE
ZINC02219958
   51    53     0     0     0
SMALL
USER_CHARGES
N-[(2-hydroxy-6-methyl-3-quinolyl)methyl]-N-isobutyl-tetrahydrofuran-2-carboxamide
@<TRIPOS>ATOM
      1 C1        -10.4369    5.9047   -4.0116 C.3       1 <0>        -0.1151
      2 C2         -9.6680    4.9181   -3.1714 C.ar      1 <0>        -0.0992
      3 C3        -10.0390    4.7081   -1.8452 C.ar      1 <0>        -0.0826
      4 C4         -9.3510    3.8405   -1.0526 C.ar      1 <0>        -0.1040
      5 C5         -8.2781    3.1078   -1.5887 C.ar      1 <0>         0.1755
      6 C6         -7.9061    3.3188   -2.9390 C.ar      1 <0>        -0.1393
      7 C7         -8.6194    4.2429   -3.7186 C.ar      1 <0>        -0.0837
      8 C8         -6.8227    2.5928   -3.4728 C.ar      1 <0>        -0.0050
      9 C9         -6.1808    1.7031   -2.6635 C.ar      1 <0>        -0.2362
     10 C10        -6.6183    1.5163   -1.3464 C.ar      1 <0>         0.3788
     11 N1         -7.6095    2.2204   -0.8439 N.ar      1 <0>        -0.5052
     12 O1         -5.9766    0.6202   -0.5569 O.3       1 <0>        -0.4610
     13 C11        -5.0170    0.9051   -3.1927 C.3       1 <0>         0.1418
     14 N2         -3.7632    1.5003   -2.7237 N.am      1 <0>        -0.6036
     15 C12        -3.1556    2.6077   -3.4657 C.3       1 <0>         0.1057
     16 C13        -2.1893    2.0505   -4.5131 C.3       1 <0>        -0.1246
     17 C14        -2.9755    1.2682   -5.5671 C.3       1 <0>        -0.1539
     18 C15        -1.4445    3.2054   -5.1854 C.3       1 <0>        -0.1474
     19 C16        -3.1689    1.0290   -1.6096 C.2       1 <0>         0.5213
     20 O2         -3.6319    0.0657   -1.0365 O.2       1 <0>        -0.5083
     21 C17        -1.9290    1.6991   -1.0761 C.3       1 <0>         0.0652
     22 H1         -2.0312    2.7816   -1.1518 H         1 <0>         0.0965
     23 C18        -0.6962    1.2320   -1.8743 C.3       1 <0>        -0.1457
     24 C19         0.2334    0.6073   -0.8054 C.3       1 <0>        -0.1542
     25 C20        -0.2912    1.2556    0.5011 C.3       1 <0>         0.0438
     26 O3         -1.7195    1.3196    0.2944 O.3       1 <0>        -0.3456
     27 H2        -11.2599    5.3932   -4.5108 H         1 <0>         0.0720
     28 H3        -10.8337    6.6941   -3.3730 H         1 <0>         0.0684
     29 H4         -9.7735    6.3408   -4.7584 H         1 <0>         0.0669
     30 H5        -10.8743    5.2553   -1.4340 H         1 <0>         0.1311
     31 H6         -9.6400    3.7022   -0.0212 H         1 <0>         0.1375
     32 H7         -8.3408    4.4145   -4.7478 H         1 <0>         0.1286
     33 H8         -6.5092    2.7374   -4.4962 H         1 <0>         0.1420
     34 H9         -5.2545    0.1702   -1.0823 H         1 <0>         0.4047
     35 H10        -5.0373    0.9121   -4.2825 H         1 <0>         0.1105
     36 H11        -5.0880   -0.1220   -2.8347 H         1 <0>         0.0986
     37 H12        -3.9362    3.1843   -3.9618 H         1 <0>         0.0877
     38 H13        -2.6111    3.2520   -2.7753 H         1 <0>         0.0851
     39 H14        -1.4717    1.3878   -4.0292 H         1 <0>         0.0830
     40 H15        -3.5062    0.4454   -5.0880 H         1 <0>         0.0581
     41 H16        -3.6932    1.9308   -6.0508 H         1 <0>         0.0576
     42 H17        -2.2872    0.8713   -6.3132 H         1 <0>         0.0601
     43 H18        -0.8843    3.7627   -4.4344 H         1 <0>         0.0576
     44 H19        -0.7562    2.8085   -5.9315 H         1 <0>         0.0622
     45 H20        -2.1621    3.8680   -5.6691 H         1 <0>         0.0590
     46 H21        -0.2091    2.0803   -2.3548 H         1 <0>         0.0908
     47 H22        -0.9819    0.4850   -2.6149 H         1 <0>         0.0856
     48 H23         0.1186   -0.4762   -0.7755 H         1 <0>         0.0826
     49 H24         1.2727    0.8817   -0.9858 H         1 <0>         0.0878
     50 H25        -0.0548    0.6298    1.3617 H         1 <0>         0.1014
     51 H26         0.1238    2.2556    0.6268 H         1 <0>         0.0669
@<TRIPOS>BOND
     1    1    2 1
     2    1   27 1
     3    1   28 1
     4    1   29 1
     5    2    7 ar
     6    2    3 ar
     7    3    4 ar
     8    3   30 1
     9    4    5 ar
    10    4   31 1
    11    5    6 ar
    12    5   11 ar
    13    6    7 ar
    14    6    8 ar
    15    7   32 1
    16    8   33 1
    17    8    9 ar
    18    9   13 1
    19    9   10 ar
    20   10   11 ar
    21   10   12 1
    22   12   34 1
    23   13   14 1
    24   13   35 1
    25   13   36 1
    26   14   15 1
    27   14   19 am
    28   15   16 1
    29   15   37 1
    30   15   38 1
    31   16   17 1
    32   16   18 1
    33   16   39 1
    34   17   40 1
    35   17   41 1
    36   17   42 1
    37   18   43 1
    38   18   44 1
    39   18   45 1
    40   19   20 2
    41   19   21 1
    42   21   22 1
    43   21   26 1
    44   21   23 1
    45   23   24 1
    46   23   46 1
    47   23   47 1
    48   24   25 1
    49   24   48 1
    50   24   49 1
    51   25   26 1
    52   25   50 1
    53   25   51 1
@<TRIPOS>MOLECULE
ZINC02219957
   51    53     0     0     0
SMALL
USER_CHARGES
N-[(2-hydroxy-6-methyl-3-quinolyl)methyl]-N-isobutyl-tetrahydrofuran-2-carboxamide
@<TRIPOS>ATOM
      1 C1          8.0888    3.1438   -0.0611 C.3       1 <0>        -0.1160
      2 C2          6.7187    2.6030    0.2568 C.ar      1 <0>        -0.0962
      3 C3          6.3683    2.3542    1.5820 C.ar      1 <0>        -0.0821
      4 C4          5.1400    1.8631    1.9029 C.ar      1 <0>        -0.1035
      5 C5          4.2042    1.6058    0.8862 C.ar      1 <0>         0.1696
      6 C6          4.5630    1.8584   -0.4605 C.ar      1 <0>        -0.1322
      7 C7          5.8393    2.3632   -0.7550 C.ar      1 <0>        -0.0815
      8 C8          3.6264    1.5962   -1.4800 C.ar      1 <0>         0.0117
      9 C9          2.4053    1.1054   -1.1239 C.ar      1 <0>        -0.2339
     10 C10         2.1108    0.8790    0.2260 C.ar      1 <0>         0.3673
     11 N1          2.9881    1.1287    1.1740 N.ar      1 <0>        -0.4991
     12 O1          0.8942    0.3853    0.5638 O.3       1 <0>        -0.4524
     13 C11         1.3731    0.8099   -2.1813 C.3       1 <0>         0.1549
     14 N2          1.4304   -0.6100   -2.5367 N.am      1 <0>        -0.6094
     15 C12         0.5820   -1.5759   -1.8342 C.3       1 <0>         0.0876
     16 C13        -0.8848   -1.3125   -2.1802 C.3       1 <0>        -0.1161
     17 C14        -1.1016   -1.5266   -3.6795 C.3       1 <0>        -0.1586
     18 C15        -1.7755   -2.2762   -1.3934 C.3       1 <0>        -0.1499
     19 C16         2.2640   -1.0279   -3.5099 C.2       1 <0>         0.5214
     20 O2          3.0196   -0.2414   -4.0403 O.2       1 <0>        -0.5099
     21 C17         2.2571   -2.4725   -3.9391 C.3       1 <0>         0.0595
     22 H1          2.0615   -3.1135   -3.0794 H         1 <0>         0.0909
     23 C18         1.1761   -2.6944   -5.0147 C.3       1 <0>        -0.1485
     24 C19         1.9599   -3.2389   -6.2337 C.3       1 <0>        -0.1549
     25 C20         3.2564   -3.7734   -5.5736 C.3       1 <0>         0.0443
     26 O3          3.5229   -2.8133   -4.5287 O.3       1 <0>        -0.3496
     27 H2          8.7781    2.3150   -0.2230 H         1 <0>         0.0728
     28 H3          8.0380    3.7552   -0.9621 H         1 <0>         0.0681
     29 H4          8.4415    3.7523    0.7716 H         1 <0>         0.0690
     30 H5          7.0831    2.5525    2.3669 H         1 <0>         0.1322
     31 H6          4.8848    1.6735    2.9350 H         1 <0>         0.1378
     32 H7          6.1226    2.5594   -1.7786 H         1 <0>         0.1309
     33 H8          3.8694    1.7791   -2.5163 H         1 <0>         0.1491
     34 H9          0.3477    0.2509   -0.2628 H         1 <0>         0.3980
     35 H10         0.3811    1.0486   -1.7974 H         1 <0>         0.0900
     36 H11         1.5755    1.4144   -3.0655 H         1 <0>         0.1080
     37 H12         0.8517   -2.5867   -2.1404 H         1 <0>         0.0960
     38 H13         0.7261   -1.4716   -0.7588 H         1 <0>         0.0808
     39 H14        -1.1411   -0.2857   -1.9189 H         1 <0>         0.0751
     40 H15        -2.1242   -1.2544   -3.9413 H         1 <0>         0.0601
     41 H16        -0.4050   -0.9031   -4.2401 H         1 <0>         0.0593
     42 H17        -0.9302   -2.5744   -3.9255 H         1 <0>         0.0632
     43 H18        -1.6210   -2.1237   -0.3252 H         1 <0>         0.0610
     44 H19        -2.8205   -2.0885   -1.6398 H         1 <0>         0.0636
     45 H20        -1.5193   -3.3029   -1.6546 H         1 <0>         0.0594
     46 H21         0.4436   -3.4263   -4.6742 H         1 <0>         0.0905
     47 H22         0.6879   -1.7525   -5.2649 H         1 <0>         0.0890
     48 H23         1.4108   -4.0446   -6.7208 H         1 <0>         0.0865
     49 H24         2.1836   -2.4401   -6.9408 H         1 <0>         0.0814
     50 H25         3.0916   -4.7647   -5.1511 H         1 <0>         0.0656
     51 H26         4.0741   -3.7934   -6.2942 H         1 <0>         0.0994
@<TRIPOS>BOND
     1    1    2 1
     2    1   27 1
     3    1   28 1
     4    1   29 1
     5    2    7 ar
     6    2    3 ar
     7    3    4 ar
     8    3   30 1
     9    4    5 ar
    10    4   31 1
    11    5    6 ar
    12    5   11 ar
    13    6    7 ar
    14    6    8 ar
    15    7   32 1
    16    8   33 1
    17    8    9 ar
    18    9   13 1
    19    9   10 ar
    20   10   11 ar
    21   10   12 1
    22   12   34 1
    23   13   14 1
    24   13   35 1
    25   13   36 1
    26   14   15 1
    27   14   19 am
    28   15   16 1
    29   15   37 1
    30   15   38 1
    31   16   17 1
    32   16   18 1
    33   16   39 1
    34   17   40 1
    35   17   41 1
    36   17   42 1
    37   18   43 1
    38   18   44 1
    39   18   45 1
    40   19   20 2
    41   19   21 1
    42   21   22 1
    43   21   26 1
    44   21   23 1
    45   23   24 1
    46   23   46 1
    47   23   47 1
    48   24   25 1
    49   24   48 1
    50   24   49 1
    51   25   26 1
    52   25   50 1
    53   25   51 1
@<TRIPOS>MOLECULE
ZINC05343044
   40    43     0     0     0
SMALL
USER_CHARGES
3-(2-methyl-2,3-dihydrobenzofuran-5-yl)-2-(4-oxo-3H-quinazolin-2-yl)-prop-2-enenitrile
@<TRIPOS>ATOM
      1 C1          4.0917  -10.6538    1.3483 C.3       1 <0>        -0.1729
      2 C2          3.3394  -10.5889    0.0176 C.3       1 <0>         0.0748
      3 H1          3.5112  -11.4916   -0.5686 H         1 <0>         0.1195
      4 C3          3.7493   -9.3299   -0.7825 C.3       1 <0>        -0.1057
      5 C4          2.6970   -8.3275   -0.3492 C.ar      1 <0>        -0.1813
      6 C5          2.6305   -6.9609   -0.4521 C.ar      1 <0>        -0.0279
      7 C6          1.5194   -6.2784    0.0658 C.ar      1 <0>        -0.1325
      8 C7          0.4942   -7.0055    0.6872 C.ar      1 <0>        -0.0547
      9 C8          0.5699   -8.3641    0.7738 C.ar      1 <0>        -0.1388
     10 C9          1.6716   -9.0496    0.2571 C.ar      1 <0>         0.1353
     11 O1          1.9337  -10.3841    0.2369 O.3       1 <0>        -0.2953
     12 C10         1.4340   -4.8193   -0.0366 C.2       1 <0>         0.0626
     13 C11         0.2043   -4.2051   -0.1069 C.2       1 <0>        -0.0370
     14 C12        -0.9844   -4.9944   -0.2281 C.1       1 <0>         0.2668
     15 N1         -1.9273   -5.6206   -0.3242 N.1       1 <0>        -0.4090
     16 C13         0.1110   -2.7367   -0.0576 C.ar      1 <0>         0.4276
     17 N2         -1.1285   -2.1578   -0.1287 N.ar      1 <0>        -0.5708
     18 H2         -2.2438    0.7126   -0.1010 H         1 <0>         0.4309
     19 C14        -1.2587   -0.8114   -0.0860 C.ar      1 <0>         0.4493
     20 O2         -2.3523   -0.2804   -0.1479 O.3       1 <0>        -0.3738
     21 C15        -0.0296   -0.0140    0.0350 C.ar      1 <0>        -0.2542
     22 C16        -0.0587    1.3784    0.0852 C.ar      1 <0>        -0.0844
     23 C17         1.1237    2.0765    0.1996 C.ar      1 <0>        -0.1233
     24 C18         2.3376    1.4045    0.2656 C.ar      1 <0>        -0.0742
     25 C19         2.3895    0.0402    0.2192 C.ar      1 <0>        -0.1035
     26 C20         1.2067   -0.6967    0.1023 C.ar      1 <0>         0.1960
     27 N3          1.2179   -2.0429    0.0523 N.ar      1 <0>        -0.5445
     28 H3          3.7224  -11.4957    1.9338 H         1 <0>         0.0703
     29 H4          5.1571  -10.7834    1.1575 H         1 <0>         0.0781
     30 H5          3.9317   -9.7283    1.9017 H         1 <0>         0.0635
     31 H6          3.6930   -9.5147   -1.8553 H         1 <0>         0.0941
     32 H7          4.7469   -8.9951   -0.4982 H         1 <0>         0.0967
     33 H8          3.4294   -6.4131   -0.9297 H         1 <0>         0.1372
     34 H9         -0.3612   -6.4874    1.0949 H         1 <0>         0.1356
     35 H10        -0.2274   -8.9150    1.2505 H         1 <0>         0.1338
     36 H11         2.3360   -4.2257   -0.0568 H         1 <0>         0.1664
     37 H12        -0.9996    1.9060    0.0301 H         1 <0>         0.1305
     38 H13         1.1066    3.1557    0.2384 H         1 <0>         0.1349
     39 H14         3.2541    1.9690    0.3554 H         1 <0>         0.1366
     40 H15         3.3410   -0.4678    0.2724 H         1 <0>         0.1432
@<TRIPOS>BOND
     1    1    2 1
     2    1   28 1
     3    1   29 1
     4    1   30 1
     5    2    3 1
     6    2   11 1
     7    2    4 1
     8    4    5 1
     9    4   31 1
    10    4   32 1
    11    5   10 ar
    12    5    6 ar
    13    6    7 ar
    14    6   33 1
    15    7    8 ar
    16    7   12 1
    17    8    9 ar
    18    8   34 1
    19    9   10 ar
    20    9   35 1
    21   10   11 1
    22   12   13 2
    23   12   36 1
    24   13   14 1
    25   13   16 1
    26   14   15 3
    27   16   27 ar
    28   16   17 ar
    29   17   19 ar
    30   18   20 1
    31   19   20 1
    32   19   21 ar
    33   21   22 ar
    34   21   26 ar
    35   22   23 ar
    36   22   37 1
    37   23   24 ar
    38   23   38 1
    39   24   25 ar
    40   24   39 1
    41   25   26 ar
    42   25   40 1
    43   26   27 ar
@<TRIPOS>MOLECULE
ZINC05343045
   40    43     0     0     0
SMALL
USER_CHARGES
3-(2-methyl-2,3-dihydrobenzofuran-5-yl)-2-(4-oxo-3H-quinazolin-2-yl)-prop-2-enenitrile
@<TRIPOS>ATOM
      1 C1          3.5800  -11.8562   -0.8053 C.3       1 <0>        -0.1518
      2 C2          3.3394  -10.5888    0.0174 C.3       1 <0>         0.0750
      3 H1          3.8756  -10.6381    0.9652 H         1 <0>         0.0911
      4 C3          3.7487   -9.3300   -0.7833 C.3       1 <0>        -0.1054
      5 C4          2.6967   -8.3274   -0.3494 C.ar      1 <0>        -0.1833
      6 C5          2.6301   -6.9609   -0.4525 C.ar      1 <0>        -0.0274
      7 C6          1.5194   -6.2784    0.0660 C.ar      1 <0>        -0.1325
      8 C7          0.4947   -7.0053    0.6883 C.ar      1 <0>        -0.0543
      9 C8          0.5704   -8.3640    0.7751 C.ar      1 <0>        -0.1386
     10 C9          1.6718   -9.0494    0.2577 C.ar      1 <0>         0.1357
     11 O1          1.9338  -10.3839    0.2377 O.3       1 <0>        -0.2975
     12 C10         1.4339   -4.8192   -0.0364 C.2       1 <0>         0.0627
     13 C11         0.2042   -4.2051   -0.1060 C.2       1 <0>        -0.0370
     14 C12        -0.9845   -4.9944   -0.2262 C.1       1 <0>         0.2668
     15 N1         -1.9276   -5.6206   -0.3216 N.1       1 <0>        -0.4089
     16 C13         0.1109   -2.7366   -0.0569 C.ar      1 <0>         0.4276
     17 N2         -1.1284   -2.1577   -0.1309 N.ar      1 <0>        -0.5707
     18 H2         -2.2433    0.7130   -0.1068 H         1 <0>         0.4310
     19 C14        -1.2584   -0.8111   -0.0894 C.ar      1 <0>         0.4493
     20 O2         -2.3518   -0.2801   -0.1532 O.3       1 <0>        -0.3738
     21 C15        -0.0300   -0.0141    0.0395 C.ar      1 <0>        -0.2543
     22 C16        -0.0594    1.3782    0.0930 C.ar      1 <0>        -0.0843
     23 C17         1.1227    2.0761    0.2131 C.ar      1 <0>        -0.1233
     24 C18         2.3365    1.4042    0.2801 C.ar      1 <0>        -0.0741
     25 C19         2.3888    0.0400    0.2278 C.ar      1 <0>        -0.1036
     26 C20         1.2064   -0.6969    0.1078 C.ar      1 <0>         0.1962
     27 N3          1.2177   -2.0429    0.0557 N.ar      1 <0>        -0.5444
     28 H3          3.0611  -11.7733   -1.7604 H         1 <0>         0.0680
     29 H4          4.6487  -11.9774   -0.9819 H         1 <0>         0.0817
     30 H5          3.2013  -12.7206   -0.2600 H         1 <0>         0.0708
     31 H6          3.6916   -9.5149   -1.8560 H         1 <0>         0.0946
     32 H7          4.7465   -8.9951   -0.4997 H         1 <0>         0.0957
     33 H8          3.4287   -6.4132   -0.9308 H         1 <0>         0.1375
     34 H9         -0.3605   -6.4872    1.0965 H         1 <0>         0.1358
     35 H10        -0.2266   -8.9148    1.2524 H         1 <0>         0.1341
     36 H11         2.3359   -4.2256   -0.0573 H         1 <0>         0.1665
     37 H12        -1.0001    1.9058    0.0365 H         1 <0>         0.1305
     38 H13         1.1053    3.1551    0.2550 H         1 <0>         0.1349
     39 H14         3.2526    1.9685    0.3736 H         1 <0>         0.1367
     40 H15         3.3405   -0.4679    0.2796 H         1 <0>         0.1433
@<TRIPOS>BOND
     1    1    2 1
     2    1   28 1
     3    1   29 1
     4    1   30 1
     5    2    3 1
     6    2   11 1
     7    2    4 1
     8    4    5 1
     9    4   31 1
    10    4   32 1
    11    5   10 ar
    12    5    6 ar
    13    6    7 ar
    14    6   33 1
    15    7    8 ar
    16    7   12 1
    17    8    9 ar
    18    8   34 1
    19    9   10 ar
    20    9   35 1
    21   10   11 1
    22   12   13 2
    23   12   36 1
    24   13   14 1
    25   13   16 1
    26   14   15 3
    27   16   27 ar
    28   16   17 ar
    29   17   19 ar
    30   18   20 1
    31   19   20 1
    32   19   21 ar
    33   21   22 ar
    34   21   26 ar
    35   22   23 ar
    36   22   37 1
    37   23   24 ar
    38   23   38 1
    39   24   25 ar
    40   24   39 1
    41   25   26 ar
    42   25   40 1
    43   26   27 ar
@<TRIPOS>MOLECULE
ZINC05343050
   39    41     0     0     0
SMALL
USER_CHARGES
3-allyl-5-(3-benzo[1,3]dioxol-5-ylprop-2-enoyl)-6-hydroxy-1H-pyrimidine-2,4-dione
@<TRIPOS>ATOM
      1 C1         -0.0633    1.2954    0.0274 C.2       1 <0>        -0.1499
      2 C2         -0.0295   -0.0141    0.0146 C.2       1 <0>        -0.1869
      3 C3          1.2945   -0.7335   -0.0076 C.3       1 <0>         0.1393
      4 N1          1.3584   -1.6734    1.1143 N.am      1 <0>        -0.5499
      5 C4          1.8591   -1.2653    2.2987 C.2       1 <0>         0.5821
      6 O1          2.2581   -0.1245    2.4446 O.2       1 <0>        -0.4889
      7 C5          1.9086   -2.2235    3.4087 C.2       1 <0>        -0.3785
      8 C6          1.4406   -3.5193    3.1772 C.2       1 <0>         0.4788
      9 N2          0.9568   -3.8382    1.9417 N.am      1 <0>        -0.6605
     10 H1          0.6207   -4.7645    1.7713 H         1 <0>         0.4446
     11 C7          0.9230   -2.9336    0.9506 C.2       1 <0>         0.7107
     12 O2          0.4827   -3.2662   -0.1325 O.2       1 <0>        -0.5196
     13 O3          1.4669   -4.4401    4.1586 O.3       1 <0>        -0.4096
     14 C8          2.4380   -1.8338    4.7211 C.2       1 <0>         0.4576
     15 O4          2.3773   -2.6111    5.6580 O.2       1 <0>        -0.4609
     16 C9          3.0390   -0.5116    4.9047 C.2       1 <0>        -0.2227
     17 C10         3.6182   -0.1910    6.0811 C.2       1 <0>        -0.0296
     18 C11         4.2216    1.1367    6.2655 C.ar      1 <0>        -0.0640
     19 C12         4.1970    2.0701    5.2229 C.ar      1 <0>        -0.0857
     20 C13         4.7627    3.3133    5.3987 C.ar      1 <0>        -0.1018
     21 C14         5.3585    3.6462    6.6084 C.ar      1 <0>         0.0422
     22 C15         5.3869    2.7205    7.6528 C.ar      1 <0>         0.0272
     23 C16         4.8176    1.4736    7.4861 C.ar      1 <0>        -0.0790
     24 O5          6.0218    3.2879    8.7202 O.3       1 <0>        -0.3079
     25 C17         6.0176    4.7041    8.4607 C.3       1 <0>         0.2126
     26 O6          5.9754    4.7894    7.0243 O.3       1 <0>        -0.3070
     27 H2          0.8577    1.8595    0.0221 H         1 <0>         0.1044
     28 H3         -1.0122    1.8110    0.0388 H         1 <0>         0.1044
     29 H4         -0.9505   -0.5781    0.0199 H         1 <0>         0.1126
     30 H5          1.3956   -1.2797   -0.9455 H         1 <0>         0.1090
     31 H6          2.1036   -0.0082    0.0795 H         1 <0>         0.1096
     32 H7          1.1310   -5.3209    3.9433 H         1 <0>         0.4185
     33 H8          3.0190    0.2073    4.0990 H         1 <0>         0.1649
     34 H9          3.6382   -0.9099    6.8868 H         1 <0>         0.1332
     35 H10         3.7347    1.8153    4.2806 H         1 <0>         0.1497
     36 H11         4.7427    4.0323    4.5931 H         1 <0>         0.1400
     37 H12         4.8355    0.7582    8.2950 H         1 <0>         0.1407
     38 H13         5.1351    5.1708    8.8981 H         1 <0>         0.0863
     39 H14         6.9268    5.1664    8.8452 H         1 <0>         0.1337
@<TRIPOS>BOND
     1    1    2 2
     2    1   27 1
     3    1   28 1
     4    2    3 1
     5    2   29 1
     6    3    4 1
     7    3   30 1
     8    3   31 1
     9    4   11 am
    10    4    5 am
    11    5    6 2
    12    5    7 1
    13    7    8 2
    14    7   14 1
    15    8    9 1
    16    8   13 1
    17    9   10 1
    18    9   11 am
    19   11   12 2
    20   13   32 1
    21   14   15 2
    22   14   16 1
    23   16   17 2
    24   16   33 1
    25   17   18 1
    26   17   34 1
    27   18   23 ar
    28   18   19 ar
    29   19   20 ar
    30   19   35 1
    31   20   21 ar
    32   20   36 1
    33   21   26 1
    34   21   22 ar
    35   22   23 ar
    36   22   24 1
    37   23   37 1
    38   24   25 1
    39   25   26 1
    40   25   38 1
    41   25   39 1
@<TRIPOS>MOLECULE
ZINC02221444
   55    58     0     0     0
SMALL
USER_CHARGES
2-diethylamino-1-[2-(2-naphthyl)-4-quinolyl]-ethanol
@<TRIPOS>ATOM
      1 C1          7.0053   11.3096   -1.5429 C.3       1 <0>        -0.1912
      2 C2          5.8645   11.9318   -0.7352 C.3       1 <0>        -0.0175
      3 C3          4.5056   12.0745   -2.7341 C.3       1 <0>        -0.0127
      4 C4          4.3757   13.5990   -2.7241 C.3       1 <0>        -0.1881
      5 C5          4.3482   10.1304   -1.2995 C.3       1 <0>        -0.0450
      6 C6          4.1837    9.6933    0.1575 C.3       1 <0>         0.1329
      7 H1          5.0504   10.0170    0.7339 H         1 <0>         0.1364
      8 C7          4.0699    8.1920    0.2218 C.ar      1 <0>        -0.0806
      9 C8          2.8501    7.5838    0.2474 C.ar      1 <0>        -0.1376
     10 C9          2.7687    6.1837    0.3069 C.ar      1 <0>         0.2138
     11 N1          3.8520    5.4313    0.3445 N.ar      1 <0>        -0.4543
     12 C10         5.0726    5.9723    0.3163 C.ar      1 <0>         0.1409
     13 C11         5.2214    7.3809    0.2565 C.ar      1 <0>        -0.0925
     14 C12         6.5081    7.9414    0.2334 C.ar      1 <0>        -0.1253
     15 C13         7.5987    7.1266    0.2678 C.ar      1 <0>        -0.0928
     16 C14         7.4552    5.7418    0.3266 C.ar      1 <0>        -0.0978
     17 C15         6.2234    5.1641    0.3509 C.ar      1 <0>        -0.0796
     18 C16         1.4356    5.5361    0.3342 C.ar      1 <0>        -0.0747
     19 C17         0.2757    6.3279    0.3008 C.ar      1 <0>        -0.1027
     20 C18        -0.9570    5.7591    0.3247 C.ar      1 <0>        -0.1019
     21 C19        -1.0844    4.3594    0.3836 C.ar      1 <0>        -0.0384
     22 C20        -2.3486    3.7469    0.4088 C.ar      1 <0>        -0.1129
     23 C21        -2.4399    2.3897    0.4607 C.ar      1 <0>        -0.1015
     24 C22        -1.2962    1.5943    0.5002 C.ar      1 <0>        -0.1131
     25 C23        -0.0548    2.1515    0.4773 C.ar      1 <0>        -0.0993
     26 C24         0.0793    3.5502    0.4183 C.ar      1 <0>        -0.0612
     27 C25         1.3442    4.1576    0.3927 C.ar      1 <0>        -0.0415
     28 O1          3.0020   10.2844    0.7017 O.3       1 <0>        -0.5417
     29 H2          7.9498   11.4753   -1.0248 H         1 <0>         0.1092
     30 H3          6.8327   10.2387   -1.6501 H         1 <0>         0.0790
     31 H4          7.0461   11.7715   -2.5294 H         1 <0>         0.0845
     32 H5          5.9773   13.0159   -0.7228 H         1 <0>         0.1348
     33 H6          5.8930   11.5518    0.2860 H         1 <0>         0.1276
     34 H7          5.4113   11.7906   -3.2701 H         1 <0>         0.1337
     35 H8          3.6382   11.6392   -3.2303 H         1 <0>         0.1284
     36 H9          3.4843   13.8840   -2.1653 H         1 <0>         0.0811
     37 H10         5.2557   14.0355   -2.2517 H         1 <0>         0.0804
     38 H11         4.2946   13.9635   -3.7481 H         1 <0>         0.1071
     39 H12         5.1985    9.6108   -1.7409 H         1 <0>         0.1463
     40 H13         3.4437    9.8857   -1.8565 H         1 <0>         0.1380
     41 H14         1.9484    8.1778    0.2217 H         1 <0>         0.1422
     42 H15         6.6326    9.0133    0.1875 H         1 <0>         0.1210
     43 H16         8.5880    7.5594    0.2493 H         1 <0>         0.1340
     44 H17         8.3358    5.1169    0.3530 H         1 <0>         0.1391
     45 H18         6.1296    4.0892    0.3969 H         1 <0>         0.1438
     46 H19         0.3656    7.4033    0.2559 H         1 <0>         0.1228
     47 H20        -1.8395    6.3811    0.2981 H         1 <0>         0.1335
     48 H21        -3.2441    4.3501    0.3825 H         1 <0>         0.1311
     49 H22        -3.4134    1.9224    0.4759 H         1 <0>         0.1286
     50 H23        -1.3965    0.5199    0.5452 H         1 <0>         0.1289
     51 H24         0.8229    1.5227    0.5047 H         1 <0>         0.1314
     52 H25         2.2389    3.5533    0.4189 H         1 <0>         0.1420
     53 H26         2.1900   10.0396    0.2370 H         1 <0>         0.3897
     54 N2          4.5580   11.5930   -1.3377 N.4       1 <0>        -0.3919
     55 H27         3.8135   12.0509   -0.7988 H         1 <0>         0.4336
@<TRIPOS>BOND
     1    1    2 1
     2    1   29 1
     3    1   30 1
     4    1   31 1
     5    2   32 1
     6    2   33 1
     7    2   54 1
     8    3    4 1
     9    3   34 1
    10    3   35 1
    11    3   54 1
    12    4   36 1
    13    4   37 1
    14    4   38 1
    15    5    6 1
    16    5   39 1
    17    5   40 1
    18    5   54 1
    19    6    7 1
    20    6    8 1
    21    6   28 1
    22    8   13 ar
    23    8    9 ar
    24    9   10 ar
    25    9   41 1
    26   10   11 ar
    27   10   18 1
    28   11   12 ar
    29   12   17 ar
    30   12   13 ar
    31   13   14 ar
    32   14   15 ar
    33   14   42 1
    34   15   16 ar
    35   15   43 1
    36   16   17 ar
    37   16   44 1
    38   17   45 1
    39   18   27 ar
    40   18   19 ar
    41   19   20 ar
    42   19   46 1
    43   20   21 ar
    44   20   47 1
    45   21   26 ar
    46   21   22 ar
    47   22   23 ar
    48   22   48 1
    49   23   24 ar
    50   23   49 1
    51   24   25 ar
    52   24   50 1
    53   25   26 ar
    54   25   51 1
    55   26   27 ar
    56   27   52 1
    57   28   53 1
    58   54   55 1
@<TRIPOS>MOLECULE
ZINC05343062
   44    46     0     0     0
SMALL
USER_CHARGES
3-isopentyl-4-methyl-8-phenyl-5,7,8-triazabicyclo[4.3.0]nona-3,10-diene-2,9-dione
@<TRIPOS>ATOM
      1 C1          1.0237    3.5924    0.0131 C.3       1 <0>        -0.1144
      2 C2          1.1265    2.0890    0.0038 C.ar      1 <0>         0.2508
      3 C3          2.3470    1.5215   -0.0151 C.ar      1 <0>        -0.2683
      4 C4          2.4614    0.1058   -0.0208 C.ar      1 <0>         0.3546
      5 O1          3.5541   -0.4393   -0.0347 O.3       1 <0>        -0.3790
      6 C5          1.2275   -0.6759   -0.0095 C.ar      1 <0>        -0.4536
      7 C6          0.0022   -0.0041    0.0069 C.ar      1 <0>         0.4531
      8 N1         -0.0163    1.3533    0.0129 N.ar      1 <0>        -0.5628
      9 H1          3.4315   -1.4318   -0.0364 H         1 <0>         0.4352
     10 N2         -0.9845   -0.9477    0.0139 N.pl3     1 <0>        -0.4832
     11 H2         -1.9362   -0.7602    0.0245 H         1 <0>         0.4477
     12 N3         -0.4159   -2.2254    0.0030 N.am      1 <0>        -0.3421
     13 C7          0.9288   -2.1082   -0.0111 C.2       1 <0>         0.5791
     14 O2          1.7367   -3.0183   -0.0225 O.2       1 <0>        -0.5201
     15 C8         -1.1261   -3.4304    0.0067 C.ar      1 <0>         0.1628
     16 C9         -0.4441   -4.6402   -0.0109 C.ar      1 <0>        -0.1415
     17 C10        -1.1482   -5.8283   -0.0004 C.ar      1 <0>        -0.0845
     18 C11        -2.5309   -5.8142    0.0147 C.ar      1 <0>        -0.1356
     19 C12        -3.2130   -4.6113    0.0261 C.ar      1 <0>        -0.0867
     20 C13        -2.5148   -3.4197    0.0225 C.ar      1 <0>        -0.1557
     21 C14         3.5838    2.3825   -0.0236 C.3       1 <0>        -0.0583
     22 C15         3.9876    2.6808   -1.4689 C.3       1 <0>        -0.1112
     23 C16         5.2432    3.5550   -1.4776 C.3       1 <0>        -0.0977
     24 C17         5.7189    3.7501   -2.9186 C.3       1 <0>        -0.1490
     25 C18         4.9212    4.9164   -0.8581 C.3       1 <0>        -0.1514
     26 H3          1.0088    3.9492    1.0430 H         1 <0>         0.0882
     27 H4          1.8818    4.0185   -0.5066 H         1 <0>         0.0875
     28 H5          0.1061    3.8969   -0.4902 H         1 <0>         0.0834
     29 H6          0.6357   -4.6519   -0.0279 H         1 <0>         0.1577
     30 H7         -0.6184   -6.7694   -0.0093 H         1 <0>         0.1351
     31 H8         -3.0792   -6.7446    0.0181 H         1 <0>         0.1298
     32 H9         -4.2929   -4.6037    0.0383 H         1 <0>         0.1327
     33 H10        -3.0481   -2.4807    0.0321 H         1 <0>         0.1229
     34 H11         3.3788    3.3181    0.4968 H         1 <0>         0.0806
     35 H12         4.3956    1.8573    0.4794 H         1 <0>         0.0723
     36 H13         4.1925    1.7453   -1.9894 H         1 <0>         0.0609
     37 H14         3.1756    3.2061   -1.9720 H         1 <0>         0.0638
     38 H15         6.0283    3.0689   -0.8985 H         1 <0>         0.0699
     39 H16         4.9338    4.2362   -3.4978 H         1 <0>         0.0540
     40 H17         6.6135    4.3728   -2.9248 H         1 <0>         0.0542
     41 H18         5.9483    2.7802   -3.3599 H         1 <0>         0.0531
     42 H19         4.1361    5.4025   -1.4372 H         1 <0>         0.0549
     43 H20         4.5823    4.7774    0.1685 H         1 <0>         0.0575
     44 H21         5.8158    5.5391   -0.8643 H         1 <0>         0.0534
@<TRIPOS>BOND
     1    1    2 1
     2    1   26 1
     3    1   27 1
     4    1   28 1
     5    2    8 ar
     6    2    3 ar
     7    3   21 1
     8    3    4 ar
     9    4    5 1
    10    4    6 ar
    11    5    9 1
    12    6   13 1
    13    6    7 ar
    14    7   10 1
    15    7    8 ar
    16   10   11 1
    17   10   12 1
    18   12   13 am
    19   12   15 1
    20   13   14 2
    21   15   20 ar
    22   15   16 ar
    23   16   17 ar
    24   16   29 1
    25   17   18 ar
    26   17   30 1
    27   18   19 ar
    28   18   31 1
    29   19   20 ar
    30   19   32 1
    31   20   33 1
    32   21   22 1
    33   21   34 1
    34   21   35 1
    35   22   23 1
    36   22   36 1
    37   22   37 1
    38   23   24 1
    39   23   25 1
    40   23   38 1
    41   24   39 1
    42   24   40 1
    43   24   41 1
    44   25   42 1
    45   25   43 1
    46   25   44 1
@<TRIPOS>MOLECULE
ZINC05343065
   40    43     0     0     0
SMALL
USER_CHARGES
9-(4-chlorophenyl)-5-(2-ethylimidazol-1-yl)-3-methyl-2,6,7-triazabicyclo[4.3.0]nona-2,4,7,9-tetraene
@<TRIPOS>ATOM
      1 C1         -1.9462   -0.3582    3.0645 C.3       1 <0>        -0.1473
      2 C2         -1.7282   -0.8140    1.6203 C.3       1 <0>        -0.0489
      3 C3         -2.6825   -0.0813    0.7128 C.2       1 <0>         0.2351
      4 N1         -3.8969   -0.4579    0.4205 N.2       1 <0>        -0.4642
      5 C4         -4.4491    0.4309   -0.4195 C.2       1 <0>        -0.0099
      6 C5         -3.5485    1.4025   -0.6567 C.2       1 <0>        -0.0287
      7 N2         -2.4233    1.0857    0.0631 N.pl3     1 <0>        -0.4292
      8 C6         -1.2420    1.8151    0.1138 C.2       1 <0>         0.4174
      9 C7         -0.0387    1.2010   -0.0867 C.2       1 <0>        -0.2157
     10 C8          1.1337    1.9587   -0.0360 C.2       1 <0>         0.2247
     11 N3          1.0796    3.2498    0.2079 N.2       1 <0>        -0.4564
     12 C9         -0.0905    3.8635    0.4112 C.2       1 <0>         0.2942
     13 N4         -1.2658    3.1600    0.3703 N.pl3     1 <0>        -0.3238
     14 N5         -2.3123    4.0549    0.6171 N.2       1 <0>        -0.3006
     15 C10        -1.8195    5.2552    0.8029 C.2       1 <0>         0.1166
     16 C11        -0.4263    5.1952    0.6849 C.2       1 <0>        -0.1944
     17 C12         0.5172    6.3288    0.8241 C.ar      1 <0>         0.0101
     18 C13         1.6240    6.2189    1.6657 C.ar      1 <0>        -0.0841
     19 C14         2.5016    7.2764    1.7886 C.ar      1 <0>        -0.1068
     20 C15         2.2802    8.4483    1.0854 C.ar      1 <0>        -0.0364
     21 C16         1.1805    8.5646    0.2523 C.ar      1 <0>        -0.1074
     22 C17         0.2988    7.5119    0.1185 C.ar      1 <0>        -0.0976
     23 Cl1         3.3852    9.7771    1.2494 Cl        1 <0>        -0.0709
     24 C18         2.4670    1.2934   -0.2614 C.3       1 <0>        -0.1098
     25 H1         -1.7664    0.7143    3.1380 H         1 <0>         0.0475
     26 H2         -2.9715   -0.5761    3.3634 H         1 <0>         0.0677
     27 H3         -1.2560   -0.8882    3.7208 H         1 <0>         0.0732
     28 H4         -1.9080   -1.8866    1.5467 H         1 <0>         0.1076
     29 H5         -0.7029   -0.5962    1.3214 H         1 <0>         0.0830
     30 H6         -5.4451    0.3762   -0.8335 H         1 <0>         0.1831
     31 H7         -3.6848    2.2656   -1.2914 H         1 <0>         0.1797
     32 H8          0.0056    0.1407   -0.2871 H         1 <0>         0.1759
     33 H9         -2.3945    6.1449    1.0132 H         1 <0>         0.2057
     34 H10         1.7954    5.3066    2.2178 H         1 <0>         0.1291
     35 H11         3.3610    7.1911    2.4371 H         1 <0>         0.1344
     36 H12         1.0124    9.4812   -0.2936 H         1 <0>         0.1351
     37 H13        -0.5590    7.6039   -0.5311 H         1 <0>         0.1321
     38 H14         2.7113    1.3197   -1.3233 H         1 <0>         0.0965
     39 H15         3.2364    1.8216    0.3017 H         1 <0>         0.0930
     40 H16         2.4175    0.2576    0.0745 H         1 <0>         0.0902
@<TRIPOS>BOND
     1    1    2 1
     2    1   25 1
     3    1   26 1
     4    1   27 1
     5    2    3 1
     6    2   28 1
     7    2   29 1
     8    3    7 1
     9    3    4 2
    10    4    5 1
    11    5    6 2
    12    5   30 1
    13    6    7 1
    14    6   31 1
    15    7    8 1
    16    8   13 1
    17    8    9 2
    18    9   10 1
    19    9   32 1
    20   10   11 2
    21   10   24 1
    22   11   12 1
    23   12   16 2
    24   12   13 1
    25   13   14 1
    26   14   15 2
    27   15   16 1
    28   15   33 1
    29   16   17 1
    30   17   22 ar
    31   17   18 ar
    32   18   19 ar
    33   18   34 1
    34   19   20 ar
    35   19   35 1
    36   20   21 ar
    37   20   23 1
    38   21   22 ar
    39   21   36 1
    40   22   37 1
    41   24   38 1
    42   24   39 1
    43   24   40 1
@<TRIPOS>MOLECULE
ZINC05343067
   39    41     0     0     0
SMALL
USER_CHARGES
4-(methylaminomethylene)-2-[3-(trifluoromethyl)phenyl]-isoquinoline-1,3-dione
@<TRIPOS>ATOM
      1 C1         -8.4728    1.5663    1.3206 C.3       1 <0>         0.0297
      2 C2         -6.2427    1.9345    0.2265 C.2       1 <0>         0.3823
      3 C3         -4.9842    1.4581   -0.0679 C.3       1 <0>        -0.1377
      4 C4         -4.7257    0.0070   -0.1749 C.ar      1 <0>        -0.0761
      5 C5         -5.7328   -0.9318    0.0165 C.ar      1 <0>        -0.1691
      6 C6         -5.4408   -2.2759   -0.0936 C.ar      1 <0>        -0.0498
      7 C7         -4.1526   -2.6953   -0.3927 C.ar      1 <0>        -0.0984
      8 C8         -3.1411   -1.7795   -0.5863 C.ar      1 <0>        -0.0167
      9 C9         -3.4149   -0.4154   -0.4795 C.ar      1 <0>        -0.1193
     10 C10        -2.3663    0.5932   -0.6772 C.2       1 <0>         0.5561
     11 O1         -1.2340    0.2351   -0.9405 O.2       1 <0>        -0.4364
     12 N1         -2.6365    1.9046   -0.5725 N.am      1 <0>        -0.5039
     13 C11        -3.8595    2.3761   -0.2804 C.2       1 <0>         0.5722
     14 O2         -4.0377    3.5774   -0.1949 O.2       1 <0>        -0.4442
     15 C12        -1.5954    2.8208   -0.7712 C.ar      1 <0>         0.0915
     16 C13        -0.8155    3.2313    0.3020 C.ar      1 <0>        -0.0562
     17 C14         0.2063    4.1389    0.1040 C.ar      1 <0>        -0.1034
     18 C15         0.4564    4.6353   -1.1625 C.ar      1 <0>        -0.0421
     19 C16        -0.3150    4.2245   -2.2338 C.ar      1 <0>        -0.1700
     20 C17        -1.3382    3.3165   -2.0422 C.ar      1 <0>        -0.0425
     21 C18        -0.0394    4.7682   -3.6121 C.3       1 <0>         0.5102
     22 F1         -0.7931    5.9293   -3.8146 F         1 <0>        -0.1707
     23 F2          1.3217    5.0692   -3.7311 F         1 <0>        -0.1689
     24 F3         -0.3909    3.8111   -4.5699 F         1 <0>        -0.1746
     25 H1         -8.4334    2.4706    1.9279 H         1 <0>         0.1195
     26 H2         -9.0556    1.7587    0.4198 H         1 <0>         0.1168
     27 H3         -8.9409    0.7650    1.8920 H         1 <0>         0.1175
     28 H4         -5.4410    1.2830   -0.9401 H         1 <0>         0.1972
     29 H5         -6.5419    2.9151   -0.1129 H         1 <0>         0.2427
     30 H6         -6.7374   -0.6113    0.2495 H         1 <0>         0.1422
     31 H7         -6.2213   -3.0074    0.0545 H         1 <0>         0.1537
     32 H8         -3.9401   -3.7510   -0.4747 H         1 <0>         0.1560
     33 H9         -2.1416   -2.1158   -0.8195 H         1 <0>         0.1618
     34 H10        -1.0108    2.8446    1.2913 H         1 <0>         0.1393
     35 H11         0.8106    4.4616    0.9390 H         1 <0>         0.1530
     36 H12         1.2556    5.3455   -1.3147 H         1 <0>         0.1513
     37 H13        -1.9403    2.9960   -2.8795 H         1 <0>         0.1407
     38 N2         -7.0861    1.1050    0.9661 N.pl3     1 <0>        -0.6103
     39 H14        -6.7600    0.1795    1.2685 H         1 <0>         0.4568
@<TRIPOS>BOND
     1    1   25 1
     2    1   26 1
     3    1   27 1
     4    1   38 1
     5    2   29 1
     6    2    3 1
     7    2   38 2
     8    3   13 1
     9    3    4 1
    10    3   28 1
    11    4    9 ar
    12    4    5 ar
    13    5    6 ar
    14    5   30 1
    15    6    7 ar
    16    6   31 1
    17    7    8 ar
    18    7   32 1
    19    8    9 ar
    20    8   33 1
    21    9   10 1
    22   10   11 2
    23   10   12 am
    24   12   13 am
    25   12   15 1
    26   13   14 2
    27   15   20 ar
    28   15   16 ar
    29   16   17 ar
    30   16   34 1
    31   17   18 ar
    32   17   35 1
    33   18   19 ar
    34   18   36 1
    35   19   20 ar
    36   19   21 1
    37   20   37 1
    38   21   22 1
    39   21   23 1
    40   21   24 1
    41   38   39 1
@<TRIPOS>MOLECULE
ZINC02223026
   27    29     0     0     0
SMALL
USER_CHARGES
hydroxy-methyl-(trifluoromethyl)BLAHone
@<TRIPOS>ATOM
      1 C1          3.7582    2.7006   -2.5467 C.3       1 <0>        -0.1391
      2 C2          3.0846    2.3869   -1.2355 C.ar      1 <0>         0.0557
      3 C3          1.9717    1.5999   -1.2016 C.ar      1 <0>        -0.2533
      4 C4          1.3444    1.3164    0.0094 C.ar      1 <0>         0.3972
      5 N1          1.8286    1.8010    1.1425 N.ar      1 <0>        -0.4717
      6 C5          2.9044    2.5599    1.1538 C.ar      1 <0>         0.1703
      7 C6          3.5997    2.9060   -0.0211 C.ar      1 <0>        -0.2079
      8 C7          4.7778    3.7660    0.1564 C.2       1 <0>         0.2143
      9 C8          5.0727    4.1399    1.4611 C.2       1 <0>        -0.2178
     10 S1          3.8189    3.3619    2.4472 S.3       1 <0>         0.1973
     11 C9          6.1609    4.9525    1.7715 C.2       1 <0>        -0.0333
     12 C10         6.9670    5.3983    0.7618 C.2       1 <0>        -0.1446
     13 C11         6.6718    5.0220   -0.5583 C.2       1 <0>         0.5300
     14 O1          7.3866    5.4162   -1.4661 O.2       1 <0>        -0.5239
     15 N2          5.6218    4.2393   -0.8429 N.am      1 <0>        -0.6008
     16 H1          5.4412    3.9900   -1.7943 H         1 <0>         0.4225
     17 C12         6.4455    5.3345    3.2012 C.3       1 <0>         0.5058
     18 F1          7.5822    6.1488    3.2488 F         1 <0>        -0.1644
     19 F2          5.3509    6.0309    3.7246 F         1 <0>        -0.1628
     20 F3          6.6677    4.1787    3.9574 F         1 <0>        -0.1629
     21 O2          0.2418    0.5274    0.0295 O.3       1 <0>        -0.4357
     22 H2          3.4209    3.6732   -2.9048 H         1 <0>         0.0963
     23 H3          4.8386    2.7207   -2.4044 H         1 <0>         0.0744
     24 H4          3.5023    1.9351   -3.2790 H         1 <0>         0.0953
     25 H5          1.5703    1.1987   -2.1205 H         1 <0>         0.1568
     26 H6          7.8167    6.0298    0.9757 H         1 <0>         0.1818
     27 H7          0.0131    0.2504   -0.9037 H         1 <0>         0.4204
@<TRIPOS>BOND
     1    1    2 1
     2    1   22 1
     3    1   23 1
     4    1   24 1
     5    2    3 ar
     6    2    7 ar
     7    3   25 1
     8    3    4 ar
     9    4    5 ar
    10    4   21 1
    11    5    6 ar
    12    6   10 1
    13    6    7 ar
    14    7    8 1
    15    8   15 1
    16    8    9 2
    17    9   10 1
    18    9   11 1
    19   11   12 2
    20   11   17 1
    21   12   13 1
    22   12   26 1
    23   13   14 2
    24   13   15 am
    25   15   16 1
    26   17   18 1
    27   17   19 1
    28   17   20 1
    29   21   27 1
@<TRIPOS>MOLECULE
ZINC02223343
   55    58     0     0     0
SMALL
USER_CHARGES
2-diethylamino-1-[2-(2-naphthyl)-4-quinolyl]-ethanol
@<TRIPOS>ATOM
      1 C1          7.0053   11.3096   -1.5429 C.3       1 <0>        -0.1912
      2 C2          5.8645   11.9318   -0.7352 C.3       1 <0>        -0.0175
      3 C3          4.5056   12.0745   -2.7341 C.3       1 <0>        -0.0127
      4 C4          4.3757   13.5990   -2.7241 C.3       1 <0>        -0.1881
      5 C5          4.3482   10.1304   -1.2995 C.3       1 <0>        -0.0450
      6 C6          4.1837    9.6933    0.1575 C.3       1 <0>         0.1329
      7 H1          5.0504   10.0170    0.7339 H         1 <0>         0.1364
      8 C7          4.0699    8.1920    0.2218 C.ar      1 <0>        -0.0806
      9 C8          2.8501    7.5838    0.2474 C.ar      1 <0>        -0.1376
     10 C9          2.7687    6.1837    0.3069 C.ar      1 <0>         0.2138
     11 N1          3.8520    5.4313    0.3445 N.ar      1 <0>        -0.4543
     12 C10         5.0726    5.9723    0.3163 C.ar      1 <0>         0.1409
     13 C11         5.2214    7.3809    0.2565 C.ar      1 <0>        -0.0925
     14 C12         6.5081    7.9414    0.2334 C.ar      1 <0>        -0.1253
     15 C13         7.5987    7.1266    0.2678 C.ar      1 <0>        -0.0928
     16 C14         7.4552    5.7418    0.3266 C.ar      1 <0>        -0.0978
     17 C15         6.2234    5.1641    0.3509 C.ar      1 <0>        -0.0796
     18 C16         1.4356    5.5361    0.3342 C.ar      1 <0>        -0.0747
     19 C17         0.2757    6.3279    0.3008 C.ar      1 <0>        -0.1027
     20 C18        -0.9570    5.7591    0.3247 C.ar      1 <0>        -0.1019
     21 C19        -1.0844    4.3594    0.3836 C.ar      1 <0>        -0.0384
     22 C20        -2.3486    3.7469    0.4088 C.ar      1 <0>        -0.1129
     23 C21        -2.4399    2.3897    0.4607 C.ar      1 <0>        -0.1015
     24 C22        -1.2962    1.5943    0.5002 C.ar      1 <0>        -0.1131
     25 C23        -0.0548    2.1515    0.4773 C.ar      1 <0>        -0.0993
     26 C24         0.0793    3.5502    0.4183 C.ar      1 <0>        -0.0612
     27 C25         1.3442    4.1576    0.3927 C.ar      1 <0>        -0.0415
     28 O1          3.0020   10.2844    0.7017 O.3       1 <0>        -0.5417
     29 H2          7.9498   11.4753   -1.0248 H         1 <0>         0.1092
     30 H3          6.8327   10.2387   -1.6501 H         1 <0>         0.0790
     31 H4          7.0461   11.7715   -2.5294 H         1 <0>         0.0845
     32 H5          5.9773   13.0159   -0.7228 H         1 <0>         0.1348
     33 H6          5.8930   11.5518    0.2860 H         1 <0>         0.1276
     34 H7          5.4113   11.7906   -3.2701 H         1 <0>         0.1337
     35 H8          3.6382   11.6392   -3.2303 H         1 <0>         0.1284
     36 H9          3.4843   13.8840   -2.1653 H         1 <0>         0.0811
     37 H10         5.2557   14.0355   -2.2517 H         1 <0>         0.0804
     38 H11         4.2946   13.9635   -3.7481 H         1 <0>         0.1071
     39 H12         5.1985    9.6108   -1.7409 H         1 <0>         0.1463
     40 H13         3.4437    9.8857   -1.8565 H         1 <0>         0.1380
     41 H14         1.9484    8.1778    0.2217 H         1 <0>         0.1422
     42 H15         6.6326    9.0133    0.1875 H         1 <0>         0.1210
     43 H16         8.5880    7.5594    0.2493 H         1 <0>         0.1340
     44 H17         8.3358    5.1169    0.3530 H         1 <0>         0.1391
     45 H18         6.1296    4.0892    0.3969 H         1 <0>         0.1438
     46 H19         0.3656    7.4033    0.2559 H         1 <0>         0.1228
     47 H20        -1.8395    6.3811    0.2981 H         1 <0>         0.1335
     48 H21        -3.2441    4.3501    0.3825 H         1 <0>         0.1311
     49 H22        -3.4134    1.9224    0.4759 H         1 <0>         0.1286
     50 H23        -1.3965    0.5199    0.5452 H         1 <0>         0.1289
     51 H24         0.8229    1.5227    0.5047 H         1 <0>         0.1314
     52 H25         2.2389    3.5533    0.4189 H         1 <0>         0.1420
     53 H26         2.1900   10.0396    0.2370 H         1 <0>         0.3897
     54 N2          4.5580   11.5930   -1.3377 N.4       1 <0>        -0.3919
     55 H27         3.8135   12.0509   -0.7988 H         1 <0>         0.4336
@<TRIPOS>BOND
     1    1    2 1
     2    1   29 1
     3    1   30 1
     4    1   31 1
     5    2   32 1
     6    2   33 1
     7    2   54 1
     8    3    4 1
     9    3   34 1
    10    3   35 1
    11    3   54 1
    12    4   36 1
    13    4   37 1
    14    4   38 1
    15    5    6 1
    16    5   39 1
    17    5   40 1
    18    5   54 1
    19    6    7 1
    20    6    8 1
    21    6   28 1
    22    8   13 ar
    23    8    9 ar
    24    9   10 ar
    25    9   41 1
    26   10   11 ar
    27   10   18 1
    28   11   12 ar
    29   12   17 ar
    30   12   13 ar
    31   13   14 ar
    32   14   15 ar
    33   14   42 1
    34   15   16 ar
    35   15   43 1
    36   16   17 ar
    37   16   44 1
    38   17   45 1
    39   18   27 ar
    40   18   19 ar
    41   19   20 ar
    42   19   46 1
    43   20   21 ar
    44   20   47 1
    45   21   26 ar
    46   21   22 ar
    47   22   23 ar
    48   22   48 1
    49   23   24 ar
    50   23   49 1
    51   24   25 ar
    52   24   50 1
    53   25   26 ar
    54   25   51 1
    55   26   27 ar
    56   27   52 1
    57   28   53 1
    58   54   55 1
@<TRIPOS>MOLECULE
ZINC02223858
   55    58     0     0     0
SMALL
USER_CHARGES
2-diethylamino-1-[2-(2-naphthyl)-4-quinolyl]-ethanol
@<TRIPOS>ATOM
      1 C1          7.0053   11.3096   -1.5429 C.3       1 <0>        -0.1912
      2 C2          5.8645   11.9318   -0.7352 C.3       1 <0>        -0.0175
      3 C3          4.5056   12.0745   -2.7341 C.3       1 <0>        -0.0127
      4 C4          4.3757   13.5990   -2.7241 C.3       1 <0>        -0.1881
      5 C5          4.3482   10.1304   -1.2995 C.3       1 <0>        -0.0450
      6 C6          4.1837    9.6933    0.1575 C.3       1 <0>         0.1329
      7 H1          5.0504   10.0170    0.7339 H         1 <0>         0.1364
      8 C7          4.0699    8.1920    0.2218 C.ar      1 <0>        -0.0806
      9 C8          2.8501    7.5838    0.2474 C.ar      1 <0>        -0.1376
     10 C9          2.7687    6.1837    0.3069 C.ar      1 <0>         0.2138
     11 N1          3.8520    5.4313    0.3445 N.ar      1 <0>        -0.4543
     12 C10         5.0726    5.9723    0.3163 C.ar      1 <0>         0.1409
     13 C11         5.2214    7.3809    0.2565 C.ar      1 <0>        -0.0925
     14 C12         6.5081    7.9414    0.2334 C.ar      1 <0>        -0.1253
     15 C13         7.5987    7.1266    0.2678 C.ar      1 <0>        -0.0928
     16 C14         7.4552    5.7418    0.3266 C.ar      1 <0>        -0.0978
     17 C15         6.2234    5.1641    0.3509 C.ar      1 <0>        -0.0796
     18 C16         1.4356    5.5361    0.3342 C.ar      1 <0>        -0.0747
     19 C17         0.2757    6.3279    0.3008 C.ar      1 <0>        -0.1027
     20 C18        -0.9570    5.7591    0.3247 C.ar      1 <0>        -0.1019
     21 C19        -1.0844    4.3594    0.3836 C.ar      1 <0>        -0.0384
     22 C20        -2.3486    3.7469    0.4088 C.ar      1 <0>        -0.1129
     23 C21        -2.4399    2.3897    0.4607 C.ar      1 <0>        -0.1015
     24 C22        -1.2962    1.5943    0.5002 C.ar      1 <0>        -0.1131
     25 C23        -0.0548    2.1515    0.4773 C.ar      1 <0>        -0.0993
     26 C24         0.0793    3.5502    0.4183 C.ar      1 <0>        -0.0612
     27 C25         1.3442    4.1576    0.3927 C.ar      1 <0>        -0.0415
     28 O1          3.0020   10.2844    0.7017 O.3       1 <0>        -0.5417
     29 H2          7.9498   11.4753   -1.0248 H         1 <0>         0.1092
     30 H3          6.8327   10.2387   -1.6501 H         1 <0>         0.0790
     31 H4          7.0461   11.7715   -2.5294 H         1 <0>         0.0845
     32 H5          5.9773   13.0159   -0.7228 H         1 <0>         0.1348
     33 H6          5.8930   11.5518    0.2860 H         1 <0>         0.1276
     34 H7          5.4113   11.7906   -3.2701 H         1 <0>         0.1337
     35 H8          3.6382   11.6392   -3.2303 H         1 <0>         0.1284
     36 H9          3.4843   13.8840   -2.1653 H         1 <0>         0.0811
     37 H10         5.2557   14.0355   -2.2517 H         1 <0>         0.0804
     38 H11         4.2946   13.9635   -3.7481 H         1 <0>         0.1071
     39 H12         5.1985    9.6108   -1.7409 H         1 <0>         0.1463
     40 H13         3.4437    9.8857   -1.8565 H         1 <0>         0.1380
     41 H14         1.9484    8.1778    0.2217 H         1 <0>         0.1422
     42 H15         6.6326    9.0133    0.1875 H         1 <0>         0.1210
     43 H16         8.5880    7.5594    0.2493 H         1 <0>         0.1340
     44 H17         8.3358    5.1169    0.3530 H         1 <0>         0.1391
     45 H18         6.1296    4.0892    0.3969 H         1 <0>         0.1438
     46 H19         0.3656    7.4033    0.2559 H         1 <0>         0.1228
     47 H20        -1.8395    6.3811    0.2981 H         1 <0>         0.1335
     48 H21        -3.2441    4.3501    0.3825 H         1 <0>         0.1311
     49 H22        -3.4134    1.9224    0.4759 H         1 <0>         0.1286
     50 H23        -1.3965    0.5199    0.5452 H         1 <0>         0.1289
     51 H24         0.8229    1.5227    0.5047 H         1 <0>         0.1314
     52 H25         2.2389    3.5533    0.4189 H         1 <0>         0.1420
     53 H26         2.1900   10.0396    0.2370 H         1 <0>         0.3897
     54 N2          4.5580   11.5930   -1.3377 N.4       1 <0>        -0.3919
     55 H27         3.8135   12.0509   -0.7988 H         1 <0>         0.4336
@<TRIPOS>BOND
     1    1    2 1
     2    1   29 1
     3    1   30 1
     4    1   31 1
     5    2   32 1
     6    2   33 1
     7    2   54 1
     8    3    4 1
     9    3   34 1
    10    3   35 1
    11    3   54 1
    12    4   36 1
    13    4   37 1
    14    4   38 1
    15    5    6 1
    16    5   39 1
    17    5   40 1
    18    5   54 1
    19    6    7 1
    20    6    8 1
    21    6   28 1
    22    8   13 ar
    23    8    9 ar
    24    9   10 ar
    25    9   41 1
    26   10   11 ar
    27   10   18 1
    28   11   12 ar
    29   12   17 ar
    30   12   13 ar
    31   13   14 ar
    32   14   15 ar
    33   14   42 1
    34   15   16 ar
    35   15   43 1
    36   16   17 ar
    37   16   44 1
    38   17   45 1
    39   18   27 ar
    40   18   19 ar
    41   19   20 ar
    42   19   46 1
    43   20   21 ar
    44   20   47 1
    45   21   26 ar
    46   21   22 ar
    47   22   23 ar
    48   22   48 1
    49   23   24 ar
    50   23   49 1
    51   24   25 ar
    52   24   50 1
    53   25   26 ar
    54   25   51 1
    55   26   27 ar
    56   27   52 1
    57   28   53 1
    58   54   55 1
@<TRIPOS>MOLECULE
ZINC02224773
   55    58     0     0     0
SMALL
USER_CHARGES
2-diethylamino-1-[2-(2-naphthyl)-4-quinolyl]-ethanol
@<TRIPOS>ATOM
      1 C1          7.0053   11.3096   -1.5429 C.3       1 <0>        -0.1912
      2 C2          5.8645   11.9318   -0.7352 C.3       1 <0>        -0.0175
      3 C3          4.5056   12.0745   -2.7341 C.3       1 <0>        -0.0127
      4 C4          4.3757   13.5990   -2.7241 C.3       1 <0>        -0.1881
      5 C5          4.3482   10.1304   -1.2995 C.3       1 <0>        -0.0450
      6 C6          4.1837    9.6933    0.1575 C.3       1 <0>         0.1329
      7 H1          5.0504   10.0170    0.7339 H         1 <0>         0.1364
      8 C7          4.0699    8.1920    0.2218 C.ar      1 <0>        -0.0806
      9 C8          2.8501    7.5838    0.2474 C.ar      1 <0>        -0.1376
     10 C9          2.7687    6.1837    0.3069 C.ar      1 <0>         0.2138
     11 N1          3.8520    5.4313    0.3445 N.ar      1 <0>        -0.4543
     12 C10         5.0726    5.9723    0.3163 C.ar      1 <0>         0.1409
     13 C11         5.2214    7.3809    0.2565 C.ar      1 <0>        -0.0925
     14 C12         6.5081    7.9414    0.2334 C.ar      1 <0>        -0.1253
     15 C13         7.5987    7.1266    0.2678 C.ar      1 <0>        -0.0928
     16 C14         7.4552    5.7418    0.3266 C.ar      1 <0>        -0.0978
     17 C15         6.2234    5.1641    0.3509 C.ar      1 <0>        -0.0796
     18 C16         1.4356    5.5361    0.3342 C.ar      1 <0>        -0.0747
     19 C17         0.2757    6.3279    0.3008 C.ar      1 <0>        -0.1027
     20 C18        -0.9570    5.7591    0.3247 C.ar      1 <0>        -0.1019
     21 C19        -1.0844    4.3594    0.3836 C.ar      1 <0>        -0.0384
     22 C20        -2.3486    3.7469    0.4088 C.ar      1 <0>        -0.1129
     23 C21        -2.4399    2.3897    0.4607 C.ar      1 <0>        -0.1015
     24 C22        -1.2962    1.5943    0.5002 C.ar      1 <0>        -0.1131
     25 C23        -0.0548    2.1515    0.4773 C.ar      1 <0>        -0.0993
     26 C24         0.0793    3.5502    0.4183 C.ar      1 <0>        -0.0612
     27 C25         1.3442    4.1576    0.3927 C.ar      1 <0>        -0.0415
     28 O1          3.0020   10.2844    0.7017 O.3       1 <0>        -0.5417
     29 H2          7.9498   11.4753   -1.0248 H         1 <0>         0.1092
     30 H3          6.8327   10.2387   -1.6501 H         1 <0>         0.0790
     31 H4          7.0461   11.7715   -2.5294 H         1 <0>         0.0845
     32 H5          5.9773   13.0159   -0.7228 H         1 <0>         0.1348
     33 H6          5.8930   11.5518    0.2860 H         1 <0>         0.1276
     34 H7          5.4113   11.7906   -3.2701 H         1 <0>         0.1337
     35 H8          3.6382   11.6392   -3.2303 H         1 <0>         0.1284
     36 H9          3.4843   13.8840   -2.1653 H         1 <0>         0.0811
     37 H10         5.2557   14.0355   -2.2517 H         1 <0>         0.0804
     38 H11         4.2946   13.9635   -3.7481 H         1 <0>         0.1071
     39 H12         5.1985    9.6108   -1.7409 H         1 <0>         0.1463
     40 H13         3.4437    9.8857   -1.8565 H         1 <0>         0.1380
     41 H14         1.9484    8.1778    0.2217 H         1 <0>         0.1422
     42 H15         6.6326    9.0133    0.1875 H         1 <0>         0.1210
     43 H16         8.5880    7.5594    0.2493 H         1 <0>         0.1340
     44 H17         8.3358    5.1169    0.3530 H         1 <0>         0.1391
     45 H18         6.1296    4.0892    0.3969 H         1 <0>         0.1438
     46 H19         0.3656    7.4033    0.2559 H         1 <0>         0.1228
     47 H20        -1.8395    6.3811    0.2981 H         1 <0>         0.1335
     48 H21        -3.2441    4.3501    0.3825 H         1 <0>         0.1311
     49 H22        -3.4134    1.9224    0.4759 H         1 <0>         0.1286
     50 H23        -1.3965    0.5199    0.5452 H         1 <0>         0.1289
     51 H24         0.8229    1.5227    0.5047 H         1 <0>         0.1314
     52 H25         2.2389    3.5533    0.4189 H         1 <0>         0.1420
     53 H26         2.1900   10.0396    0.2370 H         1 <0>         0.3897
     54 N2          4.5580   11.5930   -1.3377 N.4       1 <0>        -0.3919
     55 H27         3.8135   12.0509   -0.7988 H         1 <0>         0.4336
@<TRIPOS>BOND
     1    1    2 1
     2    1   29 1
     3    1   30 1
     4    1   31 1
     5    2   32 1
     6    2   33 1
     7    2   54 1
     8    3    4 1
     9    3   34 1
    10    3   35 1
    11    3   54 1
    12    4   36 1
    13    4   37 1
    14    4   38 1
    15    5    6 1
    16    5   39 1
    17    5   40 1
    18    5   54 1
    19    6    7 1
    20    6    8 1
    21    6   28 1
    22    8   13 ar
    23    8    9 ar
    24    9   10 ar
    25    9   41 1
    26   10   11 ar
    27   10   18 1
    28   11   12 ar
    29   12   17 ar
    30   12   13 ar
    31   13   14 ar
    32   14   15 ar
    33   14   42 1
    34   15   16 ar
    35   15   43 1
    36   16   17 ar
    37   16   44 1
    38   17   45 1
    39   18   27 ar
    40   18   19 ar
    41   19   20 ar
    42   19   46 1
    43   20   21 ar
    44   20   47 1
    45   21   26 ar
    46   21   22 ar
    47   22   23 ar
    48   22   48 1
    49   23   24 ar
    50   23   49 1
    51   24   25 ar
    52   24   50 1
    53   25   26 ar
    54   25   51 1
    55   26   27 ar
    56   27   52 1
    57   28   53 1
    58   54   55 1
@<TRIPOS>MOLECULE
ZINC02224803
   55    58     0     0     0
SMALL
USER_CHARGES
2-diethylamino-1-[2-(2-naphthyl)-4-quinolyl]-ethanol
@<TRIPOS>ATOM
      1 C1          7.0053   11.3096   -1.5429 C.3       1 <0>        -0.1912
      2 C2          5.8645   11.9318   -0.7352 C.3       1 <0>        -0.0175
      3 C3          4.5056   12.0745   -2.7341 C.3       1 <0>        -0.0127
      4 C4          4.3757   13.5990   -2.7241 C.3       1 <0>        -0.1881
      5 C5          4.3482   10.1304   -1.2995 C.3       1 <0>        -0.0450
      6 C6          4.1837    9.6933    0.1575 C.3       1 <0>         0.1329
      7 H1          5.0504   10.0170    0.7339 H         1 <0>         0.1364
      8 C7          4.0699    8.1920    0.2218 C.ar      1 <0>        -0.0806
      9 C8          2.8501    7.5838    0.2474 C.ar      1 <0>        -0.1376
     10 C9          2.7687    6.1837    0.3069 C.ar      1 <0>         0.2138
     11 N1          3.8520    5.4313    0.3445 N.ar      1 <0>        -0.4543
     12 C10         5.0726    5.9723    0.3163 C.ar      1 <0>         0.1409
     13 C11         5.2214    7.3809    0.2565 C.ar      1 <0>        -0.0925
     14 C12         6.5081    7.9414    0.2334 C.ar      1 <0>        -0.1253
     15 C13         7.5987    7.1266    0.2678 C.ar      1 <0>        -0.0928
     16 C14         7.4552    5.7418    0.3266 C.ar      1 <0>        -0.0978
     17 C15         6.2234    5.1641    0.3509 C.ar      1 <0>        -0.0796
     18 C16         1.4356    5.5361    0.3342 C.ar      1 <0>        -0.0747
     19 C17         0.2757    6.3279    0.3008 C.ar      1 <0>        -0.1027
     20 C18        -0.9570    5.7591    0.3247 C.ar      1 <0>        -0.1019
     21 C19        -1.0844    4.3594    0.3836 C.ar      1 <0>        -0.0384
     22 C20        -2.3486    3.7469    0.4088 C.ar      1 <0>        -0.1129
     23 C21        -2.4399    2.3897    0.4607 C.ar      1 <0>        -0.1015
     24 C22        -1.2962    1.5943    0.5002 C.ar      1 <0>        -0.1131
     25 C23        -0.0548    2.1515    0.4773 C.ar      1 <0>        -0.0993
     26 C24         0.0793    3.5502    0.4183 C.ar      1 <0>        -0.0612
     27 C25         1.3442    4.1576    0.3927 C.ar      1 <0>        -0.0415
     28 O1          3.0020   10.2844    0.7017 O.3       1 <0>        -0.5417
     29 H2          7.9498   11.4753   -1.0248 H         1 <0>         0.1092
     30 H3          6.8327   10.2387   -1.6501 H         1 <0>         0.0790
     31 H4          7.0461   11.7715   -2.5294 H         1 <0>         0.0845
     32 H5          5.9773   13.0159   -0.7228 H         1 <0>         0.1348
     33 H6          5.8930   11.5518    0.2860 H         1 <0>         0.1276
     34 H7          5.4113   11.7906   -3.2701 H         1 <0>         0.1337
     35 H8          3.6382   11.6392   -3.2303 H         1 <0>         0.1284
     36 H9          3.4843   13.8840   -2.1653 H         1 <0>         0.0811
     37 H10         5.2557   14.0355   -2.2517 H         1 <0>         0.0804
     38 H11         4.2946   13.9635   -3.7481 H         1 <0>         0.1071
     39 H12         5.1985    9.6108   -1.7409 H         1 <0>         0.1463
     40 H13         3.4437    9.8857   -1.8565 H         1 <0>         0.1380
     41 H14         1.9484    8.1778    0.2217 H         1 <0>         0.1422
     42 H15         6.6326    9.0133    0.1875 H         1 <0>         0.1210
     43 H16         8.5880    7.5594    0.2493 H         1 <0>         0.1340
     44 H17         8.3358    5.1169    0.3530 H         1 <0>         0.1391
     45 H18         6.1296    4.0892    0.3969 H         1 <0>         0.1438
     46 H19         0.3656    7.4033    0.2559 H         1 <0>         0.1228
     47 H20        -1.8395    6.3811    0.2981 H         1 <0>         0.1335
     48 H21        -3.2441    4.3501    0.3825 H         1 <0>         0.1311
     49 H22        -3.4134    1.9224    0.4759 H         1 <0>         0.1286
     50 H23        -1.3965    0.5199    0.5452 H         1 <0>         0.1289
     51 H24         0.8229    1.5227    0.5047 H         1 <0>         0.1314
     52 H25         2.2389    3.5533    0.4189 H         1 <0>         0.1420
     53 H26         2.1900   10.0396    0.2370 H         1 <0>         0.3897
     54 N2          4.5580   11.5930   -1.3377 N.4       1 <0>        -0.3919
     55 H27         3.8135   12.0509   -0.7988 H         1 <0>         0.4336
@<TRIPOS>BOND
     1    1    2 1
     2    1   29 1
     3    1   30 1
     4    1   31 1
     5    2   32 1
     6    2   33 1
     7    2   54 1
     8    3    4 1
     9    3   34 1
    10    3   35 1
    11    3   54 1
    12    4   36 1
    13    4   37 1
    14    4   38 1
    15    5    6 1
    16    5   39 1
    17    5   40 1
    18    5   54 1
    19    6    7 1
    20    6    8 1
    21    6   28 1
    22    8   13 ar
    23    8    9 ar
    24    9   10 ar
    25    9   41 1
    26   10   11 ar
    27   10   18 1
    28   11   12 ar
    29   12   17 ar
    30   12   13 ar
    31   13   14 ar
    32   14   15 ar
    33   14   42 1
    34   15   16 ar
    35   15   43 1
    36   16   17 ar
    37   16   44 1
    38   17   45 1
    39   18   27 ar
    40   18   19 ar
    41   19   20 ar
    42   19   46 1
    43   20   21 ar
    44   20   47 1
    45   21   26 ar
    46   21   22 ar
    47   22   23 ar
    48   22   48 1
    49   23   24 ar
    50   23   49 1
    51   24   25 ar
    52   24   50 1
    53   25   26 ar
    54   25   51 1
    55   26   27 ar
    56   27   52 1
    57   28   53 1
    58   54   55 1
@<TRIPOS>MOLECULE
ZINC02224846
   47    49     0     0     0
SMALL
USER_CHARGES
N-(2-furylmethyl)-N-[(2-hydroxy-6-methyl-3-quinolyl)methyl]-2-methyl-propanamide
@<TRIPOS>ATOM
      1 C1          3.8343    3.3544   -7.2642 C.3       1 <0>        -0.1160
      2 C2          3.5229    3.4071   -5.7906 C.ar      1 <0>        -0.0964
      3 C3          4.5560    3.6007   -4.8763 C.ar      1 <0>        -0.0823
      4 C4          4.3117    3.6300   -3.5369 C.ar      1 <0>        -0.1034
      5 C5          2.9926    3.5114   -3.0664 C.ar      1 <0>         0.1698
      6 C6          1.9432    3.3204   -3.9983 C.ar      1 <0>        -0.1327
      7 C7          2.2355    3.2653   -5.3701 C.ar      1 <0>        -0.0815
      8 C8          0.6223    3.1893   -3.5255 C.ar      1 <0>         0.0149
      9 C9          0.4076    3.2637   -2.1812 C.ar      1 <0>        -0.2332
     10 C10         1.4843    3.4876   -1.3140 C.ar      1 <0>         0.3675
     11 N1          2.7193    3.5764   -1.7586 N.ar      1 <0>        -0.4990
     12 O1          1.2538    3.5698    0.0195 O.3       1 <0>        -0.4523
     13 C11        -0.9890    3.1289   -1.6314 C.3       1 <0>         0.1548
     14 N2         -1.2088    1.7497   -1.1891 N.am      1 <0>        -0.6120
     15 C12        -1.0273    1.3949    0.2207 C.3       1 <0>         0.1769
     16 C13        -2.2956    1.6884    0.9799 C.2       1 <0>        -0.0487
     17 C14        -3.3158    0.8322    1.1682 C.2       1 <0>        -0.1861
     18 C15        -4.2905    1.5175    1.9293 C.2       1 <0>        -0.2143
     19 C16        -3.8075    2.7515    2.1606 C.2       1 <0>        -0.0260
     20 O2         -2.5964    2.8474    1.5882 O.3       1 <0>        -0.1736
     21 C17        -1.5779    0.8073   -2.0790 C.2       1 <0>         0.5275
     22 O3         -1.6129    1.0711   -3.2623 O.2       1 <0>        -0.5203
     23 C18        -1.9472   -0.5743   -1.6039 C.3       1 <0>        -0.1223
     24 C19        -2.8365   -1.2520   -2.6483 C.3       1 <0>        -0.1351
     25 C20        -0.6759   -1.4013   -1.4027 C.3       1 <0>        -0.1480
     26 H1          3.7763    4.3587   -7.6838 H         1 <0>         0.0727
     27 H2          4.8391    2.9575   -7.4093 H         1 <0>         0.0689
     28 H3          3.1128    2.7090   -7.7651 H         1 <0>         0.0681
     29 H4          5.5690    3.7109   -5.2341 H         1 <0>         0.1321
     30 H5          5.1259    3.7626   -2.8398 H         1 <0>         0.1378
     31 H6          1.4430    3.1160   -6.0886 H         1 <0>         0.1307
     32 H7         -0.1985    3.0340   -4.2099 H         1 <0>         0.1493
     33 H8          0.2727    3.4852    0.1940 H         1 <0>         0.3976
     34 H9         -1.7112    3.3808   -2.4080 H         1 <0>         0.1055
     35 H10        -1.1137    3.8058   -0.7861 H         1 <0>         0.0907
     36 H11        -0.7933    0.3333    0.3010 H         1 <0>         0.1247
     37 H12        -0.2091    1.9801    0.6403 H         1 <0>         0.0965
     38 H13        -3.3785   -0.1836    0.8068 H         1 <0>         0.1507
     39 H14        -5.2406    1.1254    2.2611 H         1 <0>         0.1514
     40 H15        -4.3069    3.5311    2.7169 H         1 <0>         0.2060
     41 H16        -2.4867   -0.5016   -0.6595 H         1 <0>         0.0963
     42 H17        -3.1037   -2.2513   -2.3047 H         1 <0>         0.0656
     43 H18        -3.7424   -0.6628   -2.7916 H         1 <0>         0.0589
     44 H19        -2.2972   -1.3246   -3.5927 H         1 <0>         0.0680
     45 H20        -0.0805   -0.9634   -0.6017 H         1 <0>         0.0602
     46 H21        -0.9456   -2.4236   -1.1377 H         1 <0>         0.0748
     47 H22        -0.0959   -1.4062   -2.3255 H         1 <0>         0.0655
@<TRIPOS>BOND
     1    1    2 1
     2    1   26 1
     3    1   27 1
     4    1   28 1
     5    2    7 ar
     6    2    3 ar
     7    3    4 ar
     8    3   29 1
     9    4    5 ar
    10    4   30 1
    11    5    6 ar
    12    5   11 ar
    13    6    7 ar
    14    6    8 ar
    15    7   31 1
    16    8   32 1
    17    8    9 ar
    18    9   13 1
    19    9   10 ar
    20   10   11 ar
    21   10   12 1
    22   12   33 1
    23   13   14 1
    24   13   34 1
    25   13   35 1
    26   14   15 1
    27   14   21 am
    28   15   16 1
    29   15   36 1
    30   15   37 1
    31   16   20 1
    32   16   17 2
    33   17   18 1
    34   17   38 1
    35   18   19 2
    36   18   39 1
    37   19   20 1
    38   19   40 1
    39   21   22 2
    40   21   23 1
    41   23   24 1
    42   23   25 1
    43   23   41 1
    44   24   42 1
    45   24   43 1
    46   24   44 1
    47   25   45 1
    48   25   46 1
    49   25   47 1
@<TRIPOS>MOLECULE
ZINC05343122
   39    41     0     0     0
SMALL
USER_CHARGES
5-(5-ethyl-2-hydroxy-phenyl)-N-(3-pyridyl)-2H-pyrazole-3-carboxamide
@<TRIPOS>ATOM
      1 C1          7.9893    5.4465    1.5963 C.3       1 <0>        -0.1493
      2 C2          7.7991    4.8545    0.1984 C.3       1 <0>        -0.0868
      3 C3          6.9929    3.5850    0.2959 C.ar      1 <0>        -0.0803
      4 C4          7.6354    2.3720    0.4703 C.ar      1 <0>        -0.0931
      5 C5          6.9044    1.2027    0.5612 C.ar      1 <0>        -0.1324
      6 C6          5.5214    1.2407    0.4829 C.ar      1 <0>         0.1293
      7 C7          4.8702    2.4639    0.3006 C.ar      1 <0>        -0.0496
      8 C8          5.6162    3.6363    0.2105 C.ar      1 <0>        -0.1013
      9 C9          3.3898    2.5136    0.2093 C.2       1 <0>         0.0471
     10 C10         2.5146    1.4147    0.2891 C.2       1 <0>        -0.1392
     11 C11         1.2470    1.9474    0.1495 C.2       1 <0>        -0.0278
     12 N1          1.4084    3.2959   -0.0032 N.2       1 <0>        -0.2777
     13 H1          3.0231    4.5197   -0.0538 H         1 <0>         0.4542
     14 N2          2.6570    3.5934    0.0357 N.pl3     1 <0>        -0.3263
     15 C12        -0.0255    1.2084    0.1627 C.2       1 <0>         0.6109
     16 O1         -0.0254   -0.0003    0.2995 O.2       1 <0>        -0.5082
     17 N3         -1.1906    1.8701    0.0179 N.am      1 <0>        -0.6575
     18 C13        -2.3905    1.1590   -0.0859 C.ar      1 <0>         0.0974
     19 C14        -2.4213   -0.0891   -0.7038 C.ar      1 <0>        -0.0797
     20 C15        -3.6323   -0.7571   -0.7772 C.ar      1 <0>        -0.1496
     21 C16        -4.7641   -0.1637   -0.2490 C.ar      1 <0>         0.0808
     22 N4         -4.7025    1.0218    0.3250 N.ar      1 <0>        -0.4648
     23 C17        -3.5699    1.6893    0.4205 C.ar      1 <0>         0.0786
     24 O2          4.8014    0.0925    0.5778 O.3       1 <0>        -0.4884
     25 H2          8.5156    4.7293    2.2261 H         1 <0>         0.0579
     26 H3          8.5723    6.3647    1.5258 H         1 <0>         0.0613
     27 H4          7.0152    5.6673    2.0330 H         1 <0>         0.0553
     28 H5          8.7731    4.6337   -0.2382 H         1 <0>         0.0767
     29 H6          7.2727    5.5717   -0.4314 H         1 <0>         0.0734
     30 H7          8.7128    2.3388    0.5358 H         1 <0>         0.1319
     31 H8          7.4113    0.2589    0.6979 H         1 <0>         0.1375
     32 H9          5.1181    4.5848    0.0739 H         1 <0>         0.1214
     33 H10         2.7773    0.3767    0.4294 H         1 <0>         0.1792
     34 H11        -1.1970    2.8396   -0.0145 H         1 <0>         0.4203
     35 H12        -1.5223   -0.5267   -1.1120 H         1 <0>         0.1462
     36 H13        -3.6928   -1.7285   -1.2454 H         1 <0>         0.1405
     37 H14        -5.7117   -0.6783   -0.3076 H         1 <0>         0.1593
     38 H15        -3.5589    2.6581    0.8977 H         1 <0>         0.1581
     39 H16         4.6431   -0.3437   -0.2706 H         1 <0>         0.3943
@<TRIPOS>BOND
     1    1    2 1
     2    1   25 1
     3    1   26 1
     4    1   27 1
     5    2    3 1
     6    2   28 1
     7    2   29 1
     8    3    8 ar
     9    3    4 ar
    10    4    5 ar
    11    4   30 1
    12    5    6 ar
    13    5   31 1
    14    6    7 ar
    15    6   24 1
    16    7    8 ar
    17    7    9 1
    18    8   32 1
    19    9   10 2
    20    9   14 1
    21   10   33 1
    22   10   11 1
    23   11   15 1
    24   11   12 2
    25   12   14 1
    26   13   14 1
    27   15   16 2
    28   15   17 am
    29   17   18 1
    30   17   34 1
    31   18   23 ar
    32   18   19 ar
    33   19   20 ar
    34   19   35 1
    35   20   21 ar
    36   20   36 1
    37   21   22 ar
    38   21   37 1
    39   22   23 ar
    40   23   38 1
    41   24   39 1
@<TRIPOS>MOLECULE
ZINC02224928
   38    40     0     0     0
SMALL
USER_CHARGES
8-[(2-fluorophenyl)methylamino]-4-propyl-1,5,7,9-tetrazabicyclo[4.3.0]nona-3,6,8-trien-2-one
@<TRIPOS>ATOM
      1 C1         -0.0127    1.0858    0.0080 C.3       1 <0>        -0.1545
      2 C2         -0.7288    1.5792    1.2668 C.3       1 <0>        -0.1241
      3 C3          0.0111    1.0724    2.5063 C.3       1 <0>        -0.0889
      4 C4         -0.6942    1.5584    3.7462 C.2       1 <0>         0.2199
      5 C5         -1.6059    0.7694    4.3583 C.2       1 <0>        -0.2891
      6 C6         -2.2570    1.2310    5.5222 C.2       1 <0>         0.5631
      7 O1         -3.0771    0.5273    6.0850 O.2       1 <0>        -0.4870
      8 N1         -1.9726    2.4543    6.0030 N.am      1 <0>        -0.3691
      9 C7         -1.0580    3.2450    5.3784 C.2       1 <0>         0.5237
     10 N2         -0.4170    2.7958    4.2473 N.pl3     1 <0>        -0.5836
     11 H1          0.2549    3.3790    3.7907 H         1 <0>         0.4466
     12 N3         -0.9774    4.3727    6.0548 N.2       1 <0>        -0.5668
     13 C8         -1.8125    4.3345    7.0976 C.2       1 <0>         0.5121
     14 N4         -2.4414    3.1815    7.1058 N.2       1 <0>        -0.3358
     15 N5         -1.9881    5.3559    8.0283 N.pl3     1 <0>        -0.6862
     16 C9         -2.9388    5.1874    9.1301 C.3       1 <0>         0.1818
     17 C10        -2.9392    6.4270    9.9872 C.ar      1 <0>        -0.1471
     18 C11        -2.2319    6.4468   11.1745 C.ar      1 <0>        -0.0675
     19 C12        -2.2275    7.5855   11.9580 C.ar      1 <0>        -0.1323
     20 C13        -2.9396    8.7021   11.5607 C.ar      1 <0>        -0.0789
     21 C14        -3.6520    8.6827   10.3770 C.ar      1 <0>        -0.1571
     22 C15        -3.6526    7.5444    9.5884 C.ar      1 <0>         0.1194
     23 F1         -4.3492    7.5241    8.4310 F         1 <0>        -0.1321
     24 H2          0.0021   -0.0041    0.0020 H         1 <0>         0.0604
     25 H3          1.0099    1.4631    0.0003 H         1 <0>         0.0581
     26 H4         -0.5399    1.4469   -0.8751 H         1 <0>         0.0617
     27 H5         -0.7436    2.6691    1.2728 H         1 <0>         0.0674
     28 H6         -1.7514    1.2020    1.2746 H         1 <0>         0.0751
     29 H7          0.0259   -0.0175    2.5003 H         1 <0>         0.1108
     30 H8          1.0337    1.4497    2.4986 H         1 <0>         0.0944
     31 H9         -1.8314   -0.2093    3.9613 H         1 <0>         0.1817
     32 H10        -1.4808    6.1787    7.9469 H         1 <0>         0.4180
     33 H11        -3.9380    5.0247    8.7261 H         1 <0>         0.0791
     34 H12        -2.6467    4.3283    9.7339 H         1 <0>         0.0822
     35 H13        -1.6790    5.5736   11.4881 H         1 <0>         0.1365
     36 H14        -1.6709    7.6015   12.8834 H         1 <0>         0.1337
     37 H15        -2.9393    9.5897   12.1761 H         1 <0>         0.1358
     38 H16        -4.2085    9.5549   10.0670 H         1 <0>         0.1386
@<TRIPOS>BOND
     1    1    2 1
     2    1   24 1
     3    1   25 1
     4    1   26 1
     5    2    3 1
     6    2   27 1
     7    2   28 1
     8    3    4 1
     9    3   29 1
    10    3   30 1
    11    4   10 1
    12    4    5 2
    13    5    6 1
    14    5   31 1
    15    6    7 2
    16    6    8 am
    17    8   14 1
    18    8    9 1
    19    9   10 1
    20    9   12 2
    21   10   11 1
    22   12   13 1
    23   13   14 2
    24   13   15 1
    25   15   16 1
    26   15   32 1
    27   16   17 1
    28   16   33 1
    29   16   34 1
    30   17   22 ar
    31   17   18 ar
    32   18   19 ar
    33   18   35 1
    34   19   20 ar
    35   19   36 1
    36   20   21 ar
    37   20   37 1
    38   21   22 ar
    39   21   38 1
    40   22   23 1
@<TRIPOS>MOLECULE
ZINC02225148
   55    58     0     0     0
SMALL
USER_CHARGES
2-diethylamino-1-[2-(2-naphthyl)-4-quinolyl]-ethanol
@<TRIPOS>ATOM
      1 C1          7.0053   11.3096   -1.5429 C.3       1 <0>        -0.1912
      2 C2          5.8645   11.9318   -0.7352 C.3       1 <0>        -0.0175
      3 C3          4.5056   12.0745   -2.7341 C.3       1 <0>        -0.0127
      4 C4          4.3757   13.5990   -2.7241 C.3       1 <0>        -0.1881
      5 C5          4.3482   10.1304   -1.2995 C.3       1 <0>        -0.0450
      6 C6          4.1837    9.6933    0.1575 C.3       1 <0>         0.1329
      7 H1          5.0504   10.0170    0.7339 H         1 <0>         0.1364
      8 C7          4.0699    8.1920    0.2218 C.ar      1 <0>        -0.0806
      9 C8          2.8501    7.5838    0.2474 C.ar      1 <0>        -0.1376
     10 C9          2.7687    6.1837    0.3069 C.ar      1 <0>         0.2138
     11 N1          3.8520    5.4313    0.3445 N.ar      1 <0>        -0.4543
     12 C10         5.0726    5.9723    0.3163 C.ar      1 <0>         0.1409
     13 C11         5.2214    7.3809    0.2565 C.ar      1 <0>        -0.0925
     14 C12         6.5081    7.9414    0.2334 C.ar      1 <0>        -0.1253
     15 C13         7.5987    7.1266    0.2678 C.ar      1 <0>        -0.0928
     16 C14         7.4552    5.7418    0.3266 C.ar      1 <0>        -0.0978
     17 C15         6.2234    5.1641    0.3509 C.ar      1 <0>        -0.0796
     18 C16         1.4356    5.5361    0.3342 C.ar      1 <0>        -0.0747
     19 C17         0.2757    6.3279    0.3008 C.ar      1 <0>        -0.1027
     20 C18        -0.9570    5.7591    0.3247 C.ar      1 <0>        -0.1019
     21 C19        -1.0844    4.3594    0.3836 C.ar      1 <0>        -0.0384
     22 C20        -2.3486    3.7469    0.4088 C.ar      1 <0>        -0.1129
     23 C21        -2.4399    2.3897    0.4607 C.ar      1 <0>        -0.1015
     24 C22        -1.2962    1.5943    0.5002 C.ar      1 <0>        -0.1131
     25 C23        -0.0548    2.1515    0.4773 C.ar      1 <0>        -0.0993
     26 C24         0.0793    3.5502    0.4183 C.ar      1 <0>        -0.0612
     27 C25         1.3442    4.1576    0.3927 C.ar      1 <0>        -0.0415
     28 O1          3.0020   10.2844    0.7017 O.3       1 <0>        -0.5417
     29 H2          7.9498   11.4753   -1.0248 H         1 <0>         0.1092
     30 H3          6.8327   10.2387   -1.6501 H         1 <0>         0.0790
     31 H4          7.0461   11.7715   -2.5294 H         1 <0>         0.0845
     32 H5          5.9773   13.0159   -0.7228 H         1 <0>         0.1348
     33 H6          5.8930   11.5518    0.2860 H         1 <0>         0.1276
     34 H7          5.4113   11.7906   -3.2701 H         1 <0>         0.1337
     35 H8          3.6382   11.6392   -3.2303 H         1 <0>         0.1284
     36 H9          3.4843   13.8840   -2.1653 H         1 <0>         0.0811
     37 H10         5.2557   14.0355   -2.2517 H         1 <0>         0.0804
     38 H11         4.2946   13.9635   -3.7481 H         1 <0>         0.1071
     39 H12         5.1985    9.6108   -1.7409 H         1 <0>         0.1463
     40 H13         3.4437    9.8857   -1.8565 H         1 <0>         0.1380
     41 H14         1.9484    8.1778    0.2217 H         1 <0>         0.1422
     42 H15         6.6326    9.0133    0.1875 H         1 <0>         0.1210
     43 H16         8.5880    7.5594    0.2493 H         1 <0>         0.1340
     44 H17         8.3358    5.1169    0.3530 H         1 <0>         0.1391
     45 H18         6.1296    4.0892    0.3969 H         1 <0>         0.1438
     46 H19         0.3656    7.4033    0.2559 H         1 <0>         0.1228
     47 H20        -1.8395    6.3811    0.2981 H         1 <0>         0.1335
     48 H21        -3.2441    4.3501    0.3825 H         1 <0>         0.1311
     49 H22        -3.4134    1.9224    0.4759 H         1 <0>         0.1286
     50 H23        -1.3965    0.5199    0.5452 H         1 <0>         0.1289
     51 H24         0.8229    1.5227    0.5047 H         1 <0>         0.1314
     52 H25         2.2389    3.5533    0.4189 H         1 <0>         0.1420
     53 H26         2.1900   10.0396    0.2370 H         1 <0>         0.3897
     54 N2          4.5580   11.5930   -1.3377 N.4       1 <0>        -0.3919
     55 H27         3.8135   12.0509   -0.7988 H         1 <0>         0.4336
@<TRIPOS>BOND
     1    1    2 1
     2    1   29 1
     3    1   30 1
     4    1   31 1
     5    2   32 1
     6    2   33 1
     7    2   54 1
     8    3    4 1
     9    3   34 1
    10    3   35 1
    11    3   54 1
    12    4   36 1
    13    4   37 1
    14    4   38 1
    15    5    6 1
    16    5   39 1
    17    5   40 1
    18    5   54 1
    19    6    7 1
    20    6    8 1
    21    6   28 1
    22    8   13 ar
    23    8    9 ar
    24    9   10 ar
    25    9   41 1
    26   10   11 ar
    27   10   18 1
    28   11   12 ar
    29   12   17 ar
    30   12   13 ar
    31   13   14 ar
    32   14   15 ar
    33   14   42 1
    34   15   16 ar
    35   15   43 1
    36   16   17 ar
    37   16   44 1
    38   17   45 1
    39   18   27 ar
    40   18   19 ar
    41   19   20 ar
    42   19   46 1
    43   20   21 ar
    44   20   47 1
    45   21   26 ar
    46   21   22 ar
    47   22   23 ar
    48   22   48 1
    49   23   24 ar
    50   23   49 1
    51   24   25 ar
    52   24   50 1
    53   25   26 ar
    54   25   51 1
    55   26   27 ar
    56   27   52 1
    57   28   53 1
    58   54   55 1
@<TRIPOS>MOLECULE
ZINC02225478
   33    35     0     0     0
SMALL
USER_CHARGES
8-(4-chlorophenyl)-4-propyl-1,5,7,9-tetrazabicyclo[4.3.0]nona-3,6,8-trien-2-one
@<TRIPOS>ATOM
      1 C1         -4.3009    0.0353    1.4595 C.3       1 <0>        -0.1547
      2 C2         -2.9839    0.8140    1.4575 C.3       1 <0>        -0.1240
      3 C3         -2.4877    0.9732    0.0190 C.3       1 <0>        -0.0899
      4 C4         -1.1904    1.7401    0.0171 C.2       1 <0>         0.2249
      5 C5         -0.0126    1.0758    0.0080 C.2       1 <0>        -0.2917
      6 C6          1.1970    1.8021    0.0003 C.2       1 <0>         0.5625
      7 O1          2.2640    1.2143   -0.0135 O.2       1 <0>        -0.4792
      8 N1          1.1662    3.1466    0.0078 N.am      1 <0>        -0.3738
      9 C7         -0.0235    3.8092    0.0228 C.2       1 <0>         0.5079
     10 N2         -1.2049    3.1034    0.0300 N.pl3     1 <0>        -0.5826
     11 H1         -2.0772    3.5922    0.0447 H         1 <0>         0.4485
     12 N3          0.2371    5.0990    0.0268 N.2       1 <0>        -0.5334
     13 C8          1.5626    5.2931    0.0149 C.2       1 <0>         0.3089
     14 N4          2.1693    4.1258    0.0031 N.2       1 <0>        -0.2714
     15 C9          2.2385    6.6139    0.0146 C.ar      1 <0>        -0.0211
     16 C10         1.4838    7.7854    0.0217 C.ar      1 <0>        -0.0568
     17 C11         2.1172    9.0113    0.0277 C.ar      1 <0>        -0.1156
     18 C12         3.4999    9.0787    0.0142 C.ar      1 <0>        -0.0148
     19 C13         4.2541    7.9177    0.0013 C.ar      1 <0>        -0.1135
     20 C14         3.6301    6.6870    0.0015 C.ar      1 <0>        -0.0636
     21 Cl1         4.2908   10.6241    0.0139 Cl        1 <0>        -0.0606
     22 H2         -5.0449    0.5782    0.8765 H         1 <0>         0.0586
     23 H3         -4.1417   -0.9490    1.0190 H         1 <0>         0.0607
     24 H4         -4.6544   -0.0781    2.4843 H         1 <0>         0.0623
     25 H5         -2.2399    0.2710    2.0405 H         1 <0>         0.0752
     26 H6         -3.1431    1.7982    1.8980 H         1 <0>         0.0677
     27 H7         -3.2316    1.5161   -0.5640 H         1 <0>         0.0958
     28 H8         -2.3285   -0.0111   -0.4214 H         1 <0>         0.1119
     29 H9          0.0021   -0.0041    0.0020 H         1 <0>         0.1841
     30 H10         0.4051    7.7338    0.0270 H         1 <0>         0.1472
     31 H11         1.5332    9.9198    0.0384 H         1 <0>         0.1429
     32 H12         5.3325    7.9754   -0.0092 H         1 <0>         0.1432
     33 H13         4.2192    5.7819   -0.0089 H         1 <0>         0.1443
@<TRIPOS>BOND
     1    1    2 1
     2    1   22 1
     3    1   23 1
     4    1   24 1
     5    2    3 1
     6    2   25 1
     7    2   26 1
     8    3    4 1
     9    3   27 1
    10    3   28 1
    11    4   10 1
    12    4    5 2
    13    5    6 1
    14    5   29 1
    15    6    7 2
    16    6    8 am
    17    8   14 1
    18    8    9 1
    19    9   10 1
    20    9   12 2
    21   10   11 1
    22   12   13 1
    23   13   14 2
    24   13   15 1
    25   15   20 ar
    26   15   16 ar
    27   16   17 ar
    28   16   30 1
    29   17   18 ar
    30   17   31 1
    31   18   19 ar
    32   18   21 1
    33   19   20 ar
    34   19   32 1
    35   20   33 1
@<TRIPOS>MOLECULE
ZINC02225528
   55    58     0     0     0
SMALL
USER_CHARGES
2-diethylamino-1-[2-(2-naphthyl)-4-quinolyl]-ethanol
@<TRIPOS>ATOM
      1 C1          7.0053   11.3096   -1.5429 C.3       1 <0>        -0.1912
      2 C2          5.8645   11.9318   -0.7352 C.3       1 <0>        -0.0175
      3 C3          4.5056   12.0745   -2.7341 C.3       1 <0>        -0.0127
      4 C4          4.3757   13.5990   -2.7241 C.3       1 <0>        -0.1881
      5 C5          4.3482   10.1304   -1.2995 C.3       1 <0>        -0.0450
      6 C6          4.1837    9.6933    0.1575 C.3       1 <0>         0.1329
      7 H1          5.0504   10.0170    0.7339 H         1 <0>         0.1364
      8 C7          4.0699    8.1920    0.2218 C.ar      1 <0>        -0.0806
      9 C8          2.8501    7.5838    0.2474 C.ar      1 <0>        -0.1376
     10 C9          2.7687    6.1837    0.3069 C.ar      1 <0>         0.2138
     11 N1          3.8520    5.4313    0.3445 N.ar      1 <0>        -0.4543
     12 C10         5.0726    5.9723    0.3163 C.ar      1 <0>         0.1409
     13 C11         5.2214    7.3809    0.2565 C.ar      1 <0>        -0.0925
     14 C12         6.5081    7.9414    0.2334 C.ar      1 <0>        -0.1253
     15 C13         7.5987    7.1266    0.2678 C.ar      1 <0>        -0.0928
     16 C14         7.4552    5.7418    0.3266 C.ar      1 <0>        -0.0978
     17 C15         6.2234    5.1641    0.3509 C.ar      1 <0>        -0.0796
     18 C16         1.4356    5.5361    0.3342 C.ar      1 <0>        -0.0747
     19 C17         0.2757    6.3279    0.3008 C.ar      1 <0>        -0.1027
     20 C18        -0.9570    5.7591    0.3247 C.ar      1 <0>        -0.1019
     21 C19        -1.0844    4.3594    0.3836 C.ar      1 <0>        -0.0384
     22 C20        -2.3486    3.7469    0.4088 C.ar      1 <0>        -0.1129
     23 C21        -2.4399    2.3897    0.4607 C.ar      1 <0>        -0.1015
     24 C22        -1.2962    1.5943    0.5002 C.ar      1 <0>        -0.1131
     25 C23        -0.0548    2.1515    0.4773 C.ar      1 <0>        -0.0993
     26 C24         0.0793    3.5502    0.4183 C.ar      1 <0>        -0.0612
     27 C25         1.3442    4.1576    0.3927 C.ar      1 <0>        -0.0415
     28 O1          3.0020   10.2844    0.7017 O.3       1 <0>        -0.5417
     29 H2          7.9498   11.4753   -1.0248 H         1 <0>         0.1092
     30 H3          6.8327   10.2387   -1.6501 H         1 <0>         0.0790
     31 H4          7.0461   11.7715   -2.5294 H         1 <0>         0.0845
     32 H5          5.9773   13.0159   -0.7228 H         1 <0>         0.1348
     33 H6          5.8930   11.5518    0.2860 H         1 <0>         0.1276
     34 H7          5.4113   11.7906   -3.2701 H         1 <0>         0.1337
     35 H8          3.6382   11.6392   -3.2303 H         1 <0>         0.1284
     36 H9          3.4843   13.8840   -2.1653 H         1 <0>         0.0811
     37 H10         5.2557   14.0355   -2.2517 H         1 <0>         0.0804
     38 H11         4.2946   13.9635   -3.7481 H         1 <0>         0.1071
     39 H12         5.1985    9.6108   -1.7409 H         1 <0>         0.1463
     40 H13         3.4437    9.8857   -1.8565 H         1 <0>         0.1380
     41 H14         1.9484    8.1778    0.2217 H         1 <0>         0.1422
     42 H15         6.6326    9.0133    0.1875 H         1 <0>         0.1210
     43 H16         8.5880    7.5594    0.2493 H         1 <0>         0.1340
     44 H17         8.3358    5.1169    0.3530 H         1 <0>         0.1391
     45 H18         6.1296    4.0892    0.3969 H         1 <0>         0.1438
     46 H19         0.3656    7.4033    0.2559 H         1 <0>         0.1228
     47 H20        -1.8395    6.3811    0.2981 H         1 <0>         0.1335
     48 H21        -3.2441    4.3501    0.3825 H         1 <0>         0.1311
     49 H22        -3.4134    1.9224    0.4759 H         1 <0>         0.1286
     50 H23        -1.3965    0.5199    0.5452 H         1 <0>         0.1289
     51 H24         0.8229    1.5227    0.5047 H         1 <0>         0.1314
     52 H25         2.2389    3.5533    0.4189 H         1 <0>         0.1420
     53 H26         2.1900   10.0396    0.2370 H         1 <0>         0.3897
     54 N2          4.5580   11.5930   -1.3377 N.4       1 <0>        -0.3919
     55 H27         3.8135   12.0509   -0.7988 H         1 <0>         0.4336
@<TRIPOS>BOND
     1    1    2 1
     2    1   29 1
     3    1   30 1
     4    1   31 1
     5    2   32 1
     6    2   33 1
     7    2   54 1
     8    3    4 1
     9    3   34 1
    10    3   35 1
    11    3   54 1
    12    4   36 1
    13    4   37 1
    14    4   38 1
    15    5    6 1
    16    5   39 1
    17    5   40 1
    18    5   54 1
    19    6    7 1
    20    6    8 1
    21    6   28 1
    22    8   13 ar
    23    8    9 ar
    24    9   10 ar
    25    9   41 1
    26   10   11 ar
    27   10   18 1
    28   11   12 ar
    29   12   17 ar
    30   12   13 ar
    31   13   14 ar
    32   14   15 ar
    33   14   42 1
    34   15   16 ar
    35   15   43 1
    36   16   17 ar
    37   16   44 1
    38   17   45 1
    39   18   27 ar
    40   18   19 ar
    41   19   20 ar
    42   19   46 1
    43   20   21 ar
    44   20   47 1
    45   21   26 ar
    46   21   22 ar
    47   22   23 ar
    48   22   48 1
    49   23   24 ar
    50   23   49 1
    51   24   25 ar
    52   24   50 1
    53   25   26 ar
    54   25   51 1
    55   26   27 ar
    56   27   52 1
    57   28   53 1
    58   54   55 1
@<TRIPOS>MOLECULE
ZINC05343144
   46    48     0     0     0
SMALL
USER_CHARGES
N-(2,6-dimethylphenyl)-5-(2-hydroxy-4,5-dimethyl-phenyl)-2H-pyrazole-3-carboxamide
@<TRIPOS>ATOM
      1 C1         -0.7824    5.2997   -4.4688 C.3       1 <0>        -0.1109
      2 C2         -0.5736    5.3915   -5.9584 C.ar      1 <0>        -0.0669
      3 C3         -0.6383    6.6173   -6.5914 C.ar      1 <0>        -0.1135
      4 C4         -0.4519    6.7016   -7.9590 C.ar      1 <0>        -0.1122
      5 C5         -0.1951    5.5604   -8.6966 C.ar      1 <0>        -0.1147
      6 C6         -0.1244    4.3322   -8.0692 C.ar      1 <0>        -0.0908
      7 C7         -0.3110    4.2440   -6.6956 C.ar      1 <0>         0.1307
      8 N1         -0.2406    3.0018   -6.0573 N.am      1 <0>        -0.6727
      9 C8          0.5659    2.8375   -4.9900 C.2       1 <0>         0.5922
     10 O1          1.2817    3.7497   -4.6224 O.2       1 <0>        -0.4924
     11 C9          0.5805    1.5545   -4.2694 C.2       1 <0>        -0.0481
     12 C10         1.3431    1.2364   -3.1615 C.2       1 <0>        -0.1227
     13 C11         1.0080   -0.0941   -2.8500 C.2       1 <0>         0.0688
     14 N2          0.1072   -0.4921   -3.7236 N.2       1 <0>        -0.2512
     15 N3         -0.1611    0.4441   -4.5606 N.pl3     1 <0>        -0.3774
     16 H1         -0.8153    0.3715   -5.3134 H         1 <0>         0.4512
     17 C12         1.5644   -0.9003   -1.7351 C.ar      1 <0>        -0.0385
     18 C13         1.1402   -2.2125   -1.5413 C.ar      1 <0>        -0.0760
     19 C14         1.6563   -2.9565   -0.4995 C.ar      1 <0>        -0.0954
     20 C15         2.5988   -2.4051    0.3504 C.ar      1 <0>        -0.0635
     21 C16         3.0308   -1.1058    0.1633 C.ar      1 <0>        -0.1402
     22 C17         2.5204   -0.3478   -0.8783 C.ar      1 <0>         0.1250
     23 O2          2.9437    0.9300   -1.0627 O.3       1 <0>        -0.4911
     24 C18         3.1571   -3.2253    1.4847 C.3       1 <0>        -0.1210
     25 C19         1.1921   -4.3744   -0.2874 C.3       1 <0>        -0.1178
     26 C20         0.1556    3.0891   -8.8738 C.3       1 <0>        -0.1164
     27 H2          0.1460    5.5503   -3.9556 H         1 <0>         0.0866
     28 H3         -1.5637    5.9977   -4.1678 H         1 <0>         0.0649
     29 H4         -1.0807    4.2849   -4.2055 H         1 <0>         0.0544
     30 H5         -0.8383    7.5104   -6.0182 H         1 <0>         0.1275
     31 H6         -0.5074    7.6608   -8.4522 H         1 <0>         0.1265
     32 H7         -0.0500    5.6297   -9.7646 H         1 <0>         0.1273
     33 H8         -0.7721    2.2585   -6.3826 H         1 <0>         0.4023
     34 H9          2.0477    1.8725   -2.6465 H         1 <0>         0.1804
     35 H10         0.4047   -2.6461   -2.2027 H         1 <0>         0.1334
     36 H11         3.7667   -0.6807    0.8298 H         1 <0>         0.1337
     37 H12         3.7124    1.0097   -1.6439 H         1 <0>         0.3915
     38 H13         2.5404   -3.0848    2.3724 H         1 <0>         0.0746
     39 H14         3.1573   -4.2789    1.2055 H         1 <0>         0.0738
     40 H15         4.1773   -2.9054    1.6967 H         1 <0>         0.0682
     41 H16         0.3287   -4.3784    0.3780 H         1 <0>         0.0724
     42 H17         0.9143   -4.8131   -1.2458 H         1 <0>         0.0671
     43 H18         1.9976   -4.9574    0.1592 H         1 <0>         0.0723
     44 H19        -0.7855    2.6565   -9.2134 H         1 <0>         0.0722
     45 H20         0.7699    3.3456   -9.7368 H         1 <0>         0.0730
     46 H21         0.6847    2.3660   -8.2531 H         1 <0>         0.0630
@<TRIPOS>BOND
     1    1    2 1
     2    1   27 1
     3    1   28 1
     4    1   29 1
     5    2    7 ar
     6    2    3 ar
     7    3    4 ar
     8    3   30 1
     9    4    5 ar
    10    4   31 1
    11    5    6 ar
    12    5   32 1
    13    6    7 ar
    14    6   26 1
    15    7    8 1
    16    8    9 am
    17    8   33 1
    18    9   10 2
    19    9   11 1
    20   11   15 1
    21   11   12 2
    22   12   13 1
    23   12   34 1
    24   13   14 2
    25   13   17 1
    26   14   15 1
    27   15   16 1
    28   17   22 ar
    29   17   18 ar
    30   18   19 ar
    31   18   35 1
    32   19   20 ar
    33   19   25 1
    34   20   21 ar
    35   20   24 1
    36   21   22 ar
    37   21   36 1
    38   22   23 1
    39   23   37 1
    40   24   38 1
    41   24   39 1
    42   24   40 1
    43   25   41 1
    44   25   42 1
    45   25   43 1
    46   26   44 1
    47   26   45 1
    48   26   46 1
@<TRIPOS>MOLECULE
ZINC02225952
   55    58     0     0     0
SMALL
USER_CHARGES
2-diethylamino-1-[2-(2-naphthyl)-4-quinolyl]-ethanol
@<TRIPOS>ATOM
      1 C1          7.0053   11.3096   -1.5429 C.3       1 <0>        -0.1912
      2 C2          5.8645   11.9318   -0.7352 C.3       1 <0>        -0.0175
      3 C3          4.5056   12.0745   -2.7341 C.3       1 <0>        -0.0127
      4 C4          4.3757   13.5990   -2.7241 C.3       1 <0>        -0.1881
      5 C5          4.3482   10.1304   -1.2995 C.3       1 <0>        -0.0450
      6 C6          4.1837    9.6933    0.1575 C.3       1 <0>         0.1329
      7 H1          5.0504   10.0170    0.7339 H         1 <0>         0.1364
      8 C7          4.0699    8.1920    0.2218 C.ar      1 <0>        -0.0806
      9 C8          2.8501    7.5838    0.2474 C.ar      1 <0>        -0.1376
     10 C9          2.7687    6.1837    0.3069 C.ar      1 <0>         0.2138
     11 N1          3.8520    5.4313    0.3445 N.ar      1 <0>        -0.4543
     12 C10         5.0726    5.9723    0.3163 C.ar      1 <0>         0.1409
     13 C11         5.2214    7.3809    0.2565 C.ar      1 <0>        -0.0925
     14 C12         6.5081    7.9414    0.2334 C.ar      1 <0>        -0.1253
     15 C13         7.5987    7.1266    0.2678 C.ar      1 <0>        -0.0928
     16 C14         7.4552    5.7418    0.3266 C.ar      1 <0>        -0.0978
     17 C15         6.2234    5.1641    0.3509 C.ar      1 <0>        -0.0796
     18 C16         1.4356    5.5361    0.3342 C.ar      1 <0>        -0.0747
     19 C17         0.2757    6.3279    0.3008 C.ar      1 <0>        -0.1027
     20 C18        -0.9570    5.7591    0.3247 C.ar      1 <0>        -0.1019
     21 C19        -1.0844    4.3594    0.3836 C.ar      1 <0>        -0.0384
     22 C20        -2.3486    3.7469    0.4088 C.ar      1 <0>        -0.1129
     23 C21        -2.4399    2.3897    0.4607 C.ar      1 <0>        -0.1015
     24 C22        -1.2962    1.5943    0.5002 C.ar      1 <0>        -0.1131
     25 C23        -0.0548    2.1515    0.4773 C.ar      1 <0>        -0.0993
     26 C24         0.0793    3.5502    0.4183 C.ar      1 <0>        -0.0612
     27 C25         1.3442    4.1576    0.3927 C.ar      1 <0>        -0.0415
     28 O1          3.0020   10.2844    0.7017 O.3       1 <0>        -0.5417
     29 H2          7.9498   11.4753   -1.0248 H         1 <0>         0.1092
     30 H3          6.8327   10.2387   -1.6501 H         1 <0>         0.0790
     31 H4          7.0461   11.7715   -2.5294 H         1 <0>         0.0845
     32 H5          5.9773   13.0159   -0.7228 H         1 <0>         0.1348
     33 H6          5.8930   11.5518    0.2860 H         1 <0>         0.1276
     34 H7          5.4113   11.7906   -3.2701 H         1 <0>         0.1337
     35 H8          3.6382   11.6392   -3.2303 H         1 <0>         0.1284
     36 H9          3.4843   13.8840   -2.1653 H         1 <0>         0.0811
     37 H10         5.2557   14.0355   -2.2517 H         1 <0>         0.0804
     38 H11         4.2946   13.9635   -3.7481 H         1 <0>         0.1071
     39 H12         5.1985    9.6108   -1.7409 H         1 <0>         0.1463
     40 H13         3.4437    9.8857   -1.8565 H         1 <0>         0.1380
     41 H14         1.9484    8.1778    0.2217 H         1 <0>         0.1422
     42 H15         6.6326    9.0133    0.1875 H         1 <0>         0.1210
     43 H16         8.5880    7.5594    0.2493 H         1 <0>         0.1340
     44 H17         8.3358    5.1169    0.3530 H         1 <0>         0.1391
     45 H18         6.1296    4.0892    0.3969 H         1 <0>         0.1438
     46 H19         0.3656    7.4033    0.2559 H         1 <0>         0.1228
     47 H20        -1.8395    6.3811    0.2981 H         1 <0>         0.1335
     48 H21        -3.2441    4.3501    0.3825 H         1 <0>         0.1311
     49 H22        -3.4134    1.9224    0.4759 H         1 <0>         0.1286
     50 H23        -1.3965    0.5199    0.5452 H         1 <0>         0.1289
     51 H24         0.8229    1.5227    0.5047 H         1 <0>         0.1314
     52 H25         2.2389    3.5533    0.4189 H         1 <0>         0.1420
     53 H26         2.1900   10.0396    0.2370 H         1 <0>         0.3897
     54 N2          4.5580   11.5930   -1.3377 N.4       1 <0>        -0.3919
     55 H27         3.8135   12.0509   -0.7988 H         1 <0>         0.4336
@<TRIPOS>BOND
     1    1    2 1
     2    1   29 1
     3    1   30 1
     4    1   31 1
     5    2   32 1
     6    2   33 1
     7    2   54 1
     8    3    4 1
     9    3   34 1
    10    3   35 1
    11    3   54 1
    12    4   36 1
    13    4   37 1
    14    4   38 1
    15    5    6 1
    16    5   39 1
    17    5   40 1
    18    5   54 1
    19    6    7 1
    20    6    8 1
    21    6   28 1
    22    8   13 ar
    23    8    9 ar
    24    9   10 ar
    25    9   41 1
    26   10   11 ar
    27   10   18 1
    28   11   12 ar
    29   12   17 ar
    30   12   13 ar
    31   13   14 ar
    32   14   15 ar
    33   14   42 1
    34   15   16 ar
    35   15   43 1
    36   16   17 ar
    37   16   44 1
    38   17   45 1
    39   18   27 ar
    40   18   19 ar
    41   19   20 ar
    42   19   46 1
    43   20   21 ar
    44   20   47 1
    45   21   26 ar
    46   21   22 ar
    47   22   23 ar
    48   22   48 1
    49   23   24 ar
    50   23   49 1
    51   24   25 ar
    52   24   50 1
    53   25   26 ar
    54   25   51 1
    55   26   27 ar
    56   27   52 1
    57   28   53 1
    58   54   55 1
@<TRIPOS>MOLECULE
ZINC02225969
   32    34     0     0     0
SMALL
USER_CHARGES
8-[(4-fluorophenyl)methylamino]-4-methyl-1,5,7,9-tetrazabicyclo[4.3.0]nona-3,6,8-trien-2-one
@<TRIPOS>ATOM
      1 C1          2.4752    0.9222   -0.0161 C.3       1 <0>        -0.1246
      2 C2          1.1619    1.6610   -0.0001 C.2       1 <0>         0.2178
      3 C3          1.1470    3.0130    0.0064 C.2       1 <0>        -0.2940
      4 C4         -0.0879    3.6959    0.0214 C.2       1 <0>         0.5626
      5 O1         -0.1140    4.9141    0.0270 O.2       1 <0>        -0.4872
      6 N1         -1.2358    2.9952    0.0291 N.am      1 <0>        -0.3696
      7 C5         -1.2130    1.6346    0.0167 C.2       1 <0>         0.5234
      8 N2         -0.0111    0.9658    0.0074 N.pl3     1 <0>        -0.5854
      9 H1          0.0025   -0.0341    0.0061 H         1 <0>         0.4471
     10 N3         -2.4617    1.2147    0.0203 N.2       1 <0>        -0.5674
     11 C6         -3.2907    2.2631    0.0295 C.2       1 <0>         0.5102
     12 N4         -2.5860    3.3714    0.0438 N.2       1 <0>        -0.3360
     13 N5         -4.6818    2.1915    0.0356 N.pl3     1 <0>        -0.6877
     14 C7         -5.4785    3.4209    0.0455 C.3       1 <0>         0.1808
     15 C8         -6.9440    3.0697    0.0505 C.ar      1 <0>        -0.1231
     16 C9         -7.6226    2.9205   -1.1447 C.ar      1 <0>        -0.0661
     17 C10        -8.9654    2.5938   -1.1414 C.ar      1 <0>        -0.1563
     18 C11        -9.6336    2.4262    0.0597 C.ar      1 <0>         0.1104
     19 C12        -8.9542    2.5810    1.2561 C.ar      1 <0>        -0.1563
     20 C13        -7.6102    2.9026    1.2503 C.ar      1 <0>        -0.0661
     21 F1        -10.9474    2.1114    0.0641 F         1 <0>        -0.1366
     22 H2          2.7823    0.7492   -1.0476 H         1 <0>         0.1021
     23 H3          3.2330    1.5171    0.4936 H         1 <0>         0.1054
     24 H4          2.3604   -0.0342    0.4940 H         1 <0>         0.0876
     25 H5          2.0742    3.5667    0.0005 H         1 <0>         0.1821
     26 H6         -5.1230    1.3276    0.0332 H         1 <0>         0.4187
     27 H7         -5.2408    4.0006    0.9374 H         1 <0>         0.0786
     28 H8         -5.2490    4.0098   -0.8425 H         1 <0>         0.0785
     29 H9         -7.1021    3.0553   -2.0813 H         1 <0>         0.1365
     30 H10        -9.4943    2.4732   -2.0752 H         1 <0>         0.1391
     31 H11        -9.4743    2.4502    2.1936 H         1 <0>         0.1391
     32 H12        -7.0799    3.0231    2.1835 H         1 <0>         0.1365
@<TRIPOS>BOND
     1    1    2 1
     2    1   22 1
     3    1   23 1
     4    1   24 1
     5    2    8 1
     6    2    3 2
     7    3    4 1
     8    3   25 1
     9    4    5 2
    10    4    6 am
    11    6   12 1
    12    6    7 1
    13    7    8 1
    14    7   10 2
    15    8    9 1
    16   10   11 1
    17   11   12 2
    18   11   13 1
    19   13   14 1
    20   13   26 1
    21   14   15 1
    22   14   27 1
    23   14   28 1
    24   15   20 ar
    25   15   16 ar
    26   16   17 ar
    27   16   29 1
    28   17   18 ar
    29   17   30 1
    30   18   19 ar
    31   18   21 1
    32   19   20 ar
    33   19   31 1
    34   20   32 1
@<TRIPOS>MOLECULE
ZINC05343164
   40    42     0     0     0
SMALL
USER_CHARGES
N-benzyl-5-(2-hydroxy-5-methyl-phenyl)-2H-pyrazole-3-carboxamide
@<TRIPOS>ATOM
      1 C1          8.3551   -3.2920   -9.5678 C.3       1 <0>        -0.1173
      2 C2          8.5551   -3.4041   -8.0783 C.ar      1 <0>        -0.0848
      3 C3          9.6824   -4.0327   -7.5795 C.ar      1 <0>        -0.0975
      4 C4          9.8741   -4.1408   -6.2152 C.ar      1 <0>        -0.1317
      5 C5          8.9360   -3.6188   -5.3389 C.ar      1 <0>         0.1274
      6 C6          7.7965   -2.9834   -5.8400 C.ar      1 <0>        -0.0465
      7 C7          7.6103   -2.8846   -7.2165 C.ar      1 <0>        -0.1055
      8 C8          6.7863   -2.4219   -4.9091 C.2       1 <0>         0.0428
      9 C9          6.8444   -2.4503   -3.5036 C.2       1 <0>        -0.1424
     10 C10         5.6930   -1.8157   -3.0782 C.2       1 <0>        -0.0236
     11 N1          5.0154   -1.4460   -4.2059 N.2       1 <0>        -0.2802
     12 H1          5.3763   -1.6477   -6.1900 H         1 <0>         0.4524
     13 N2          5.6717   -1.8089   -5.2484 N.pl3     1 <0>        -0.3298
     14 C11         5.2781   -1.5836   -1.6851 C.2       1 <0>         0.6064
     15 O1          5.9767   -1.9744   -0.7694 O.2       1 <0>        -0.5289
     16 N3          4.1241   -0.9381   -1.4243 N.am      1 <0>        -0.7146
     17 C12         3.7112   -0.7071   -0.0378 C.3       1 <0>         0.1608
     18 C13         2.3960    0.0285   -0.0212 C.ar      1 <0>        -0.1111
     19 C14         1.2084   -0.6789   -0.0136 C.ar      1 <0>        -0.0997
     20 C15         0.0021   -0.0041    0.0020 C.ar      1 <0>        -0.1219
     21 C16        -0.0167    1.3781    0.0096 C.ar      1 <0>        -0.1111
     22 C17         1.1709    2.0855    0.0021 C.ar      1 <0>        -0.1218
     23 C18         2.3773    1.4107   -0.0141 C.ar      1 <0>        -0.0996
     24 O2          9.1236   -3.7240   -3.9975 O.3       1 <0>        -0.4882
     25 H2          7.8066   -4.1625   -9.9274 H         1 <0>         0.0742
     26 H3          7.7887   -2.3879   -9.7912 H         1 <0>         0.0679
     27 H4          9.3253   -3.2442  -10.0622 H         1 <0>         0.0711
     28 H5         10.4158   -4.4403   -8.2595 H         1 <0>         0.1319
     29 H6         10.7557   -4.6327   -5.8317 H         1 <0>         0.1372
     30 H7          6.7297   -2.3983   -7.6094 H         1 <0>         0.1215
     31 H8          7.6228   -2.8771   -2.8884 H         1 <0>         0.1778
     32 H9          3.5669   -0.6264   -2.1546 H         1 <0>         0.4085
     33 H10         4.4677   -0.1105    0.4720 H         1 <0>         0.0799
     34 H11         3.5987   -1.6640    0.4720 H         1 <0>         0.0798
     35 H12         1.2231   -1.7588   -0.0196 H         1 <0>         0.1244
     36 H13        -0.9258   -0.5567    0.0079 H         1 <0>         0.1246
     37 H14        -0.9592    1.9054    0.0170 H         1 <0>         0.1237
     38 H15         1.1563    3.1654    0.0077 H         1 <0>         0.1247
     39 H16         3.3051    1.9634   -0.0204 H         1 <0>         0.1245
     40 H17         8.7479   -4.5261   -3.6095 H         1 <0>         0.3944
@<TRIPOS>BOND
     1    1    2 1
     2    1   25 1
     3    1   26 1
     4    1   27 1
     5    2    7 ar
     6    2    3 ar
     7    3    4 ar
     8    3   28 1
     9    4    5 ar
    10    4   29 1
    11    5    6 ar
    12    5   24 1
    13    6    7 ar
    14    6    8 1
    15    7   30 1
    16    8    9 2
    17    8   13 1
    18    9   31 1
    19    9   10 1
    20   10   14 1
    21   10   11 2
    22   11   13 1
    23   12   13 1
    24   14   15 2
    25   14   16 am
    26   16   17 1
    27   16   32 1
    28   17   18 1
    29   17   33 1
    30   17   34 1
    31   18   23 ar
    32   18   19 ar
    33   19   20 ar
    34   19   35 1
    35   20   21 ar
    36   20   36 1
    37   21   22 ar
    38   21   37 1
    39   22   23 ar
    40   22   38 1
    41   23   39 1
    42   24   40 1
@<TRIPOS>MOLECULE
ZINC05343168
   37    39     0     0     0
SMALL
USER_CHARGES
5-(5-chloro-2-hydroxy-phenyl)-N-(m-tolyl)-2H-pyrazole-3-carboxamide
@<TRIPOS>ATOM
      1 C1          1.9524    1.0347    1.5751 C.3       1 <0>        -0.1166
      2 C2          0.9184    1.7777    0.7689 C.ar      1 <0>        -0.0649
      3 C3         -0.0148    1.0757    0.0278 C.ar      1 <0>        -0.1317
      4 C4         -0.9690    1.7534   -0.7084 C.ar      1 <0>        -0.0952
      5 C5         -0.9897    3.1346   -0.7100 C.ar      1 <0>        -0.1492
      6 C6         -0.0506    3.8424    0.0285 C.ar      1 <0>         0.1449
      7 C7          0.9070    3.1585    0.7667 C.ar      1 <0>        -0.1200
      8 N1         -0.0691    5.2407    0.0295 N.am      1 <0>        -0.6709
      9 C8          1.0854    5.9298    0.1230 C.2       1 <0>         0.5934
     10 O1          2.1488    5.3395    0.1098 O.2       1 <0>        -0.4935
     11 C9          1.0593    7.3964    0.2410 C.2       1 <0>        -0.0424
     12 C10         2.1507    8.2372    0.3504 C.2       1 <0>        -0.1277
     13 C11         1.6129    9.5348    0.4321 C.2       1 <0>         0.0635
     14 N2          0.3020    9.4256    0.3811 N.2       1 <0>        -0.2248
     15 N3         -0.0492    8.1953    0.2701 N.pl3     1 <0>        -0.3754
     16 H1         -0.9932    7.8703    0.2134 H         1 <0>         0.4535
     17 C12         2.3834   10.7968    0.5592 C.ar      1 <0>        -0.0248
     18 C13         3.7749   10.7652    0.6020 C.ar      1 <0>        -0.0764
     19 C14         4.4876   11.9426    0.7204 C.ar      1 <0>        -0.0432
     20 C15         3.8225   13.1547    0.7973 C.ar      1 <0>        -0.0868
     21 C16         2.4418   13.1959    0.7552 C.ar      1 <0>        -0.1328
     22 C17         1.7156   12.0224    0.6308 C.ar      1 <0>         0.1364
     23 O2          0.3582   12.0627    0.5837 O.3       1 <0>        -0.4781
     24 Cl1         6.2223   11.9024    0.7736 Cl        1 <0>        -0.0599
     25 H2          2.8372    0.8636    0.9619 H         1 <0>         0.0743
     26 H3          2.2251    1.6260    2.4493 H         1 <0>         0.0676
     27 H4          1.5429    0.0774    1.8973 H         1 <0>         0.0691
     28 H5         -0.0009   -0.0042    0.0276 H         1 <0>         0.1255
     29 H6         -1.6991    1.2023   -1.2825 H         1 <0>         0.1288
     30 H7         -1.7353    3.6633   -1.2852 H         1 <0>         0.1256
     31 H8          1.6386    3.7060    1.3424 H         1 <0>         0.1352
     32 H9         -0.9128    5.7146   -0.0372 H         1 <0>         0.4060
     33 H10         3.1939    7.9580    0.3673 H         1 <0>         0.1707
     34 H11         4.2964    9.8213    0.5430 H         1 <0>         0.1427
     35 H12         4.3852   14.0718    0.8901 H         1 <0>         0.1411
     36 H13         1.9284   14.1442    0.8148 H         1 <0>         0.1433
     37 H14        -0.0672   12.0052    1.4502 H         1 <0>         0.3926
@<TRIPOS>BOND
     1    1    2 1
     2    1   25 1
     3    1   26 1
     4    1   27 1
     5    2    7 ar
     6    2    3 ar
     7    3    4 ar
     8    3   28 1
     9    4    5 ar
    10    4   29 1
    11    5    6 ar
    12    5   30 1
    13    6    7 ar
    14    6    8 1
    15    7   31 1
    16    8    9 am
    17    8   32 1
    18    9   10 2
    19    9   11 1
    20   11   15 1
    21   11   12 2
    22   12   13 1
    23   12   33 1
    24   13   14 2
    25   13   17 1
    26   14   15 1
    27   15   16 1
    28   17   22 ar
    29   17   18 ar
    30   18   19 ar
    31   18   34 1
    32   19   20 ar
    33   19   24 1
    34   20   21 ar
    35   20   35 1
    36   21   22 ar
    37   21   36 1
    38   22   23 1
    39   23   37 1
@<TRIPOS>MOLECULE
ZINC02226713
   55    58     0     0     0
SMALL
USER_CHARGES
2-diethylamino-1-[2-(2-naphthyl)-4-quinolyl]-ethanol
@<TRIPOS>ATOM
      1 C1          7.0053   11.3096   -1.5429 C.3       1 <0>        -0.1912
      2 C2          5.8645   11.9318   -0.7352 C.3       1 <0>        -0.0175
      3 C3          4.5056   12.0745   -2.7341 C.3       1 <0>        -0.0127
      4 C4          4.3757   13.5990   -2.7241 C.3       1 <0>        -0.1881
      5 C5          4.3482   10.1304   -1.2995 C.3       1 <0>        -0.0450
      6 C6          4.1837    9.6933    0.1575 C.3       1 <0>         0.1329
      7 H1          5.0504   10.0170    0.7339 H         1 <0>         0.1364
      8 C7          4.0699    8.1920    0.2218 C.ar      1 <0>        -0.0806
      9 C8          2.8501    7.5838    0.2474 C.ar      1 <0>        -0.1376
     10 C9          2.7687    6.1837    0.3069 C.ar      1 <0>         0.2138
     11 N1          3.8520    5.4313    0.3445 N.ar      1 <0>        -0.4543
     12 C10         5.0726    5.9723    0.3163 C.ar      1 <0>         0.1409
     13 C11         5.2214    7.3809    0.2565 C.ar      1 <0>        -0.0925
     14 C12         6.5081    7.9414    0.2334 C.ar      1 <0>        -0.1253
     15 C13         7.5987    7.1266    0.2678 C.ar      1 <0>        -0.0928
     16 C14         7.4552    5.7418    0.3266 C.ar      1 <0>        -0.0978
     17 C15         6.2234    5.1641    0.3509 C.ar      1 <0>        -0.0796
     18 C16         1.4356    5.5361    0.3342 C.ar      1 <0>        -0.0747
     19 C17         0.2757    6.3279    0.3008 C.ar      1 <0>        -0.1027
     20 C18        -0.9570    5.7591    0.3247 C.ar      1 <0>        -0.1019
     21 C19        -1.0844    4.3594    0.3836 C.ar      1 <0>        -0.0384
     22 C20        -2.3486    3.7469    0.4088 C.ar      1 <0>        -0.1129
     23 C21        -2.4399    2.3897    0.4607 C.ar      1 <0>        -0.1015
     24 C22        -1.2962    1.5943    0.5002 C.ar      1 <0>        -0.1131
     25 C23        -0.0548    2.1515    0.4773 C.ar      1 <0>        -0.0993
     26 C24         0.0793    3.5502    0.4183 C.ar      1 <0>        -0.0612
     27 C25         1.3442    4.1576    0.3927 C.ar      1 <0>        -0.0415
     28 O1          3.0020   10.2844    0.7017 O.3       1 <0>        -0.5417
     29 H2          7.9498   11.4753   -1.0248 H         1 <0>         0.1092
     30 H3          6.8327   10.2387   -1.6501 H         1 <0>         0.0790
     31 H4          7.0461   11.7715   -2.5294 H         1 <0>         0.0845
     32 H5          5.9773   13.0159   -0.7228 H         1 <0>         0.1348
     33 H6          5.8930   11.5518    0.2860 H         1 <0>         0.1276
     34 H7          5.4113   11.7906   -3.2701 H         1 <0>         0.1337
     35 H8          3.6382   11.6392   -3.2303 H         1 <0>         0.1284
     36 H9          3.4843   13.8840   -2.1653 H         1 <0>         0.0811
     37 H10         5.2557   14.0355   -2.2517 H         1 <0>         0.0804
     38 H11         4.2946   13.9635   -3.7481 H         1 <0>         0.1071
     39 H12         5.1985    9.6108   -1.7409 H         1 <0>         0.1463
     40 H13         3.4437    9.8857   -1.8565 H         1 <0>         0.1380
     41 H14         1.9484    8.1778    0.2217 H         1 <0>         0.1422
     42 H15         6.6326    9.0133    0.1875 H         1 <0>         0.1210
     43 H16         8.5880    7.5594    0.2493 H         1 <0>         0.1340
     44 H17         8.3358    5.1169    0.3530 H         1 <0>         0.1391
     45 H18         6.1296    4.0892    0.3969 H         1 <0>         0.1438
     46 H19         0.3656    7.4033    0.2559 H         1 <0>         0.1228
     47 H20        -1.8395    6.3811    0.2981 H         1 <0>         0.1335
     48 H21        -3.2441    4.3501    0.3825 H         1 <0>         0.1311
     49 H22        -3.4134    1.9224    0.4759 H         1 <0>         0.1286
     50 H23        -1.3965    0.5199    0.5452 H         1 <0>         0.1289
     51 H24         0.8229    1.5227    0.5047 H         1 <0>         0.1314
     52 H25         2.2389    3.5533    0.4189 H         1 <0>         0.1420
     53 H26         2.1900   10.0396    0.2370 H         1 <0>         0.3897
     54 N2          4.5580   11.5930   -1.3377 N.4       1 <0>        -0.3919
     55 H27         3.8135   12.0509   -0.7988 H         1 <0>         0.4336
@<TRIPOS>BOND
     1    1    2 1
     2    1   29 1
     3    1   30 1
     4    1   31 1
     5    2   32 1
     6    2   33 1
     7    2   54 1
     8    3    4 1
     9    3   34 1
    10    3   35 1
    11    3   54 1
    12    4   36 1
    13    4   37 1
    14    4   38 1
    15    5    6 1
    16    5   39 1
    17    5   40 1
    18    5   54 1
    19    6    7 1
    20    6    8 1
    21    6   28 1
    22    8   13 ar
    23    8    9 ar
    24    9   10 ar
    25    9   41 1
    26   10   11 ar
    27   10   18 1
    28   11   12 ar
    29   12   17 ar
    30   12   13 ar
    31   13   14 ar
    32   14   15 ar
    33   14   42 1
    34   15   16 ar
    35   15   43 1
    36   16   17 ar
    37   16   44 1
    38   17   45 1
    39   18   27 ar
    40   18   19 ar
    41   19   20 ar
    42   19   46 1
    43   20   21 ar
    44   20   47 1
    45   21   26 ar
    46   21   22 ar
    47   22   23 ar
    48   22   48 1
    49   23   24 ar
    50   23   49 1
    51   24   25 ar
    52   24   50 1
    53   25   26 ar
    54   25   51 1
    55   26   27 ar
    56   27   52 1
    57   28   53 1
    58   54   55 1
@<TRIPOS>MOLECULE
ZINC02226840
   55    58     0     0     0
SMALL
USER_CHARGES
2-diethylamino-1-[2-(2-naphthyl)-4-quinolyl]-ethanol
@<TRIPOS>ATOM
      1 C1          7.0053   11.3096   -1.5429 C.3       1 <0>        -0.1912
      2 C2          5.8645   11.9318   -0.7352 C.3       1 <0>        -0.0175
      3 C3          4.5056   12.0745   -2.7341 C.3       1 <0>        -0.0127
      4 C4          4.3757   13.5990   -2.7241 C.3       1 <0>        -0.1881
      5 C5          4.3482   10.1304   -1.2995 C.3       1 <0>        -0.0450
      6 C6          4.1837    9.6933    0.1575 C.3       1 <0>         0.1329
      7 H1          5.0504   10.0170    0.7339 H         1 <0>         0.1364
      8 C7          4.0699    8.1920    0.2218 C.ar      1 <0>        -0.0806
      9 C8          2.8501    7.5838    0.2474 C.ar      1 <0>        -0.1376
     10 C9          2.7687    6.1837    0.3069 C.ar      1 <0>         0.2138
     11 N1          3.8520    5.4313    0.3445 N.ar      1 <0>        -0.4543
     12 C10         5.0726    5.9723    0.3163 C.ar      1 <0>         0.1409
     13 C11         5.2214    7.3809    0.2565 C.ar      1 <0>        -0.0925
     14 C12         6.5081    7.9414    0.2334 C.ar      1 <0>        -0.1253
     15 C13         7.5987    7.1266    0.2678 C.ar      1 <0>        -0.0928
     16 C14         7.4552    5.7418    0.3266 C.ar      1 <0>        -0.0978
     17 C15         6.2234    5.1641    0.3509 C.ar      1 <0>        -0.0796
     18 C16         1.4356    5.5361    0.3342 C.ar      1 <0>        -0.0747
     19 C17         0.2757    6.3279    0.3008 C.ar      1 <0>        -0.1027
     20 C18        -0.9570    5.7591    0.3247 C.ar      1 <0>        -0.1019
     21 C19        -1.0844    4.3594    0.3836 C.ar      1 <0>        -0.0384
     22 C20        -2.3486    3.7469    0.4088 C.ar      1 <0>        -0.1129
     23 C21        -2.4399    2.3897    0.4607 C.ar      1 <0>        -0.1015
     24 C22        -1.2962    1.5943    0.5002 C.ar      1 <0>        -0.1131
     25 C23        -0.0548    2.1515    0.4773 C.ar      1 <0>        -0.0993
     26 C24         0.0793    3.5502    0.4183 C.ar      1 <0>        -0.0612
     27 C25         1.3442    4.1576    0.3927 C.ar      1 <0>        -0.0415
     28 O1          3.0020   10.2844    0.7017 O.3       1 <0>        -0.5417
     29 H2          7.9498   11.4753   -1.0248 H         1 <0>         0.1092
     30 H3          6.8327   10.2387   -1.6501 H         1 <0>         0.0790
     31 H4          7.0461   11.7715   -2.5294 H         1 <0>         0.0845
     32 H5          5.9773   13.0159   -0.7228 H         1 <0>         0.1348
     33 H6          5.8930   11.5518    0.2860 H         1 <0>         0.1276
     34 H7          5.4113   11.7906   -3.2701 H         1 <0>         0.1337
     35 H8          3.6382   11.6392   -3.2303 H         1 <0>         0.1284
     36 H9          3.4843   13.8840   -2.1653 H         1 <0>         0.0811
     37 H10         5.2557   14.0355   -2.2517 H         1 <0>         0.0804
     38 H11         4.2946   13.9635   -3.7481 H         1 <0>         0.1071
     39 H12         5.1985    9.6108   -1.7409 H         1 <0>         0.1463
     40 H13         3.4437    9.8857   -1.8565 H         1 <0>         0.1380
     41 H14         1.9484    8.1778    0.2217 H         1 <0>         0.1422
     42 H15         6.6326    9.0133    0.1875 H         1 <0>         0.1210
     43 H16         8.5880    7.5594    0.2493 H         1 <0>         0.1340
     44 H17         8.3358    5.1169    0.3530 H         1 <0>         0.1391
     45 H18         6.1296    4.0892    0.3969 H         1 <0>         0.1438
     46 H19         0.3656    7.4033    0.2559 H         1 <0>         0.1228
     47 H20        -1.8395    6.3811    0.2981 H         1 <0>         0.1335
     48 H21        -3.2441    4.3501    0.3825 H         1 <0>         0.1311
     49 H22        -3.4134    1.9224    0.4759 H         1 <0>         0.1286
     50 H23        -1.3965    0.5199    0.5452 H         1 <0>         0.1289
     51 H24         0.8229    1.5227    0.5047 H         1 <0>         0.1314
     52 H25         2.2389    3.5533    0.4189 H         1 <0>         0.1420
     53 H26         2.1900   10.0396    0.2370 H         1 <0>         0.3897
     54 N2          4.5580   11.5930   -1.3377 N.4       1 <0>        -0.3919
     55 H27         3.8135   12.0509   -0.7988 H         1 <0>         0.4336
@<TRIPOS>BOND
     1    1    2 1
     2    1   29 1
     3    1   30 1
     4    1   31 1
     5    2   32 1
     6    2   33 1
     7    2   54 1
     8    3    4 1
     9    3   34 1
    10    3   35 1
    11    3   54 1
    12    4   36 1
    13    4   37 1
    14    4   38 1
    15    5    6 1
    16    5   39 1
    17    5   40 1
    18    5   54 1
    19    6    7 1
    20    6    8 1
    21    6   28 1
    22    8   13 ar
    23    8    9 ar
    24    9   10 ar
    25    9   41 1
    26   10   11 ar
    27   10   18 1
    28   11   12 ar
    29   12   17 ar
    30   12   13 ar
    31   13   14 ar
    32   14   15 ar
    33   14   42 1
    34   15   16 ar
    35   15   43 1
    36   16   17 ar
    37   16   44 1
    38   17   45 1
    39   18   27 ar
    40   18   19 ar
    41   19   20 ar
    42   19   46 1
    43   20   21 ar
    44   20   47 1
    45   21   26 ar
    46   21   22 ar
    47   22   23 ar
    48   22   48 1
    49   23   24 ar
    50   23   49 1
    51   24   25 ar
    52   24   50 1
    53   25   26 ar
    54   25   51 1
    55   26   27 ar
    56   27   52 1
    57   28   53 1
    58   54   55 1
@<TRIPOS>MOLECULE
ZINC02226845
   55    58     0     0     0
SMALL
USER_CHARGES
2-diethylamino-1-[2-(2-naphthyl)-4-quinolyl]-ethanol
@<TRIPOS>ATOM
      1 C1          7.0053   11.3096   -1.5429 C.3       1 <0>        -0.1912
      2 C2          5.8645   11.9318   -0.7352 C.3       1 <0>        -0.0175
      3 C3          4.5056   12.0745   -2.7341 C.3       1 <0>        -0.0127
      4 C4          4.3757   13.5990   -2.7241 C.3       1 <0>        -0.1881
      5 C5          4.3482   10.1304   -1.2995 C.3       1 <0>        -0.0450
      6 C6          4.1837    9.6933    0.1575 C.3       1 <0>         0.1329
      7 H1          5.0504   10.0170    0.7339 H         1 <0>         0.1364
      8 C7          4.0699    8.1920    0.2218 C.ar      1 <0>        -0.0806
      9 C8          2.8501    7.5838    0.2474 C.ar      1 <0>        -0.1376
     10 C9          2.7687    6.1837    0.3069 C.ar      1 <0>         0.2138
     11 N1          3.8520    5.4313    0.3445 N.ar      1 <0>        -0.4543
     12 C10         5.0726    5.9723    0.3163 C.ar      1 <0>         0.1409
     13 C11         5.2214    7.3809    0.2565 C.ar      1 <0>        -0.0925
     14 C12         6.5081    7.9414    0.2334 C.ar      1 <0>        -0.1253
     15 C13         7.5987    7.1266    0.2678 C.ar      1 <0>        -0.0928
     16 C14         7.4552    5.7418    0.3266 C.ar      1 <0>        -0.0978
     17 C15         6.2234    5.1641    0.3509 C.ar      1 <0>        -0.0796
     18 C16         1.4356    5.5361    0.3342 C.ar      1 <0>        -0.0747
     19 C17         0.2757    6.3279    0.3008 C.ar      1 <0>        -0.1027
     20 C18        -0.9570    5.7591    0.3247 C.ar      1 <0>        -0.1019
     21 C19        -1.0844    4.3594    0.3836 C.ar      1 <0>        -0.0384
     22 C20        -2.3486    3.7469    0.4088 C.ar      1 <0>        -0.1129
     23 C21        -2.4399    2.3897    0.4607 C.ar      1 <0>        -0.1015
     24 C22        -1.2962    1.5943    0.5002 C.ar      1 <0>        -0.1131
     25 C23        -0.0548    2.1515    0.4773 C.ar      1 <0>        -0.0993
     26 C24         0.0793    3.5502    0.4183 C.ar      1 <0>        -0.0612
     27 C25         1.3442    4.1576    0.3927 C.ar      1 <0>        -0.0415
     28 O1          3.0020   10.2844    0.7017 O.3       1 <0>        -0.5417
     29 H2          7.9498   11.4753   -1.0248 H         1 <0>         0.1092
     30 H3          6.8327   10.2387   -1.6501 H         1 <0>         0.0790
     31 H4          7.0461   11.7715   -2.5294 H         1 <0>         0.0845
     32 H5          5.9773   13.0159   -0.7228 H         1 <0>         0.1348
     33 H6          5.8930   11.5518    0.2860 H         1 <0>         0.1276
     34 H7          5.4113   11.7906   -3.2701 H         1 <0>         0.1337
     35 H8          3.6382   11.6392   -3.2303 H         1 <0>         0.1284
     36 H9          3.4843   13.8840   -2.1653 H         1 <0>         0.0811
     37 H10         5.2557   14.0355   -2.2517 H         1 <0>         0.0804
     38 H11         4.2946   13.9635   -3.7481 H         1 <0>         0.1071
     39 H12         5.1985    9.6108   -1.7409 H         1 <0>         0.1463
     40 H13         3.4437    9.8857   -1.8565 H         1 <0>         0.1380
     41 H14         1.9484    8.1778    0.2217 H         1 <0>         0.1422
     42 H15         6.6326    9.0133    0.1875 H         1 <0>         0.1210
     43 H16         8.5880    7.5594    0.2493 H         1 <0>         0.1340
     44 H17         8.3358    5.1169    0.3530 H         1 <0>         0.1391
     45 H18         6.1296    4.0892    0.3969 H         1 <0>         0.1438
     46 H19         0.3656    7.4033    0.2559 H         1 <0>         0.1228
     47 H20        -1.8395    6.3811    0.2981 H         1 <0>         0.1335
     48 H21        -3.2441    4.3501    0.3825 H         1 <0>         0.1311
     49 H22        -3.4134    1.9224    0.4759 H         1 <0>         0.1286
     50 H23        -1.3965    0.5199    0.5452 H         1 <0>         0.1289
     51 H24         0.8229    1.5227    0.5047 H         1 <0>         0.1314
     52 H25         2.2389    3.5533    0.4189 H         1 <0>         0.1420
     53 H26         2.1900   10.0396    0.2370 H         1 <0>         0.3897
     54 N2          4.5580   11.5930   -1.3377 N.4       1 <0>        -0.3919
     55 H27         3.8135   12.0509   -0.7988 H         1 <0>         0.4336
@<TRIPOS>BOND
     1    1    2 1
     2    1   29 1
     3    1   30 1
     4    1   31 1
     5    2   32 1
     6    2   33 1
     7    2   54 1
     8    3    4 1
     9    3   34 1
    10    3   35 1
    11    3   54 1
    12    4   36 1
    13    4   37 1
    14    4   38 1
    15    5    6 1
    16    5   39 1
    17    5   40 1
    18    5   54 1
    19    6    7 1
    20    6    8 1
    21    6   28 1
    22    8   13 ar
    23    8    9 ar
    24    9   10 ar
    25    9   41 1
    26   10   11 ar
    27   10   18 1
    28   11   12 ar
    29   12   17 ar
    30   12   13 ar
    31   13   14 ar
    32   14   15 ar
    33   14   42 1
    34   15   16 ar
    35   15   43 1
    36   16   17 ar
    37   16   44 1
    38   17   45 1
    39   18   27 ar
    40   18   19 ar
    41   19   20 ar
    42   19   46 1
    43   20   21 ar
    44   20   47 1
    45   21   26 ar
    46   21   22 ar
    47   22   23 ar
    48   22   48 1
    49   23   24 ar
    50   23   49 1
    51   24   25 ar
    52   24   50 1
    53   25   26 ar
    54   25   51 1
    55   26   27 ar
    56   27   52 1
    57   28   53 1
    58   54   55 1
@<TRIPOS>MOLECULE
ZINC02227268
   55    58     0     0     0
SMALL
USER_CHARGES
2-diethylamino-1-[2-(2-naphthyl)-4-quinolyl]-ethanol
@<TRIPOS>ATOM
      1 C1          7.0053   11.3096   -1.5429 C.3       1 <0>        -0.1912
      2 C2          5.8645   11.9318   -0.7352 C.3       1 <0>        -0.0175
      3 C3          4.5056   12.0745   -2.7341 C.3       1 <0>        -0.0127
      4 C4          4.3757   13.5990   -2.7241 C.3       1 <0>        -0.1881
      5 C5          4.3482   10.1304   -1.2995 C.3       1 <0>        -0.0450
      6 C6          4.1837    9.6933    0.1575 C.3       1 <0>         0.1329
      7 H1          5.0504   10.0170    0.7339 H         1 <0>         0.1364
      8 C7          4.0699    8.1920    0.2218 C.ar      1 <0>        -0.0806
      9 C8          2.8501    7.5838    0.2474 C.ar      1 <0>        -0.1376
     10 C9          2.7687    6.1837    0.3069 C.ar      1 <0>         0.2138
     11 N1          3.8520    5.4313    0.3445 N.ar      1 <0>        -0.4543
     12 C10         5.0726    5.9723    0.3163 C.ar      1 <0>         0.1409
     13 C11         5.2214    7.3809    0.2565 C.ar      1 <0>        -0.0925
     14 C12         6.5081    7.9414    0.2334 C.ar      1 <0>        -0.1253
     15 C13         7.5987    7.1266    0.2678 C.ar      1 <0>        -0.0928
     16 C14         7.4552    5.7418    0.3266 C.ar      1 <0>        -0.0978
     17 C15         6.2234    5.1641    0.3509 C.ar      1 <0>        -0.0796
     18 C16         1.4356    5.5361    0.3342 C.ar      1 <0>        -0.0747
     19 C17         0.2757    6.3279    0.3008 C.ar      1 <0>        -0.1027
     20 C18        -0.9570    5.7591    0.3247 C.ar      1 <0>        -0.1019
     21 C19        -1.0844    4.3594    0.3836 C.ar      1 <0>        -0.0384
     22 C20        -2.3486    3.7469    0.4088 C.ar      1 <0>        -0.1129
     23 C21        -2.4399    2.3897    0.4607 C.ar      1 <0>        -0.1015
     24 C22        -1.2962    1.5943    0.5002 C.ar      1 <0>        -0.1131
     25 C23        -0.0548    2.1515    0.4773 C.ar      1 <0>        -0.0993
     26 C24         0.0793    3.5502    0.4183 C.ar      1 <0>        -0.0612
     27 C25         1.3442    4.1576    0.3927 C.ar      1 <0>        -0.0415
     28 O1          3.0020   10.2844    0.7017 O.3       1 <0>        -0.5417
     29 H2          7.9498   11.4753   -1.0248 H         1 <0>         0.1092
     30 H3          6.8327   10.2387   -1.6501 H         1 <0>         0.0790
     31 H4          7.0461   11.7715   -2.5294 H         1 <0>         0.0845
     32 H5          5.9773   13.0159   -0.7228 H         1 <0>         0.1348
     33 H6          5.8930   11.5518    0.2860 H         1 <0>         0.1276
     34 H7          5.4113   11.7906   -3.2701 H         1 <0>         0.1337
     35 H8          3.6382   11.6392   -3.2303 H         1 <0>         0.1284
     36 H9          3.4843   13.8840   -2.1653 H         1 <0>         0.0811
     37 H10         5.2557   14.0355   -2.2517 H         1 <0>         0.0804
     38 H11         4.2946   13.9635   -3.7481 H         1 <0>         0.1071
     39 H12         5.1985    9.6108   -1.7409 H         1 <0>         0.1463
     40 H13         3.4437    9.8857   -1.8565 H         1 <0>         0.1380
     41 H14         1.9484    8.1778    0.2217 H         1 <0>         0.1422
     42 H15         6.6326    9.0133    0.1875 H         1 <0>         0.1210
     43 H16         8.5880    7.5594    0.2493 H         1 <0>         0.1340
     44 H17         8.3358    5.1169    0.3530 H         1 <0>         0.1391
     45 H18         6.1296    4.0892    0.3969 H         1 <0>         0.1438
     46 H19         0.3656    7.4033    0.2559 H         1 <0>         0.1228
     47 H20        -1.8395    6.3811    0.2981 H         1 <0>         0.1335
     48 H21        -3.2441    4.3501    0.3825 H         1 <0>         0.1311
     49 H22        -3.4134    1.9224    0.4759 H         1 <0>         0.1286
     50 H23        -1.3965    0.5199    0.5452 H         1 <0>         0.1289
     51 H24         0.8229    1.5227    0.5047 H         1 <0>         0.1314
     52 H25         2.2389    3.5533    0.4189 H         1 <0>         0.1420
     53 H26         2.1900   10.0396    0.2370 H         1 <0>         0.3897
     54 N2          4.5580   11.5930   -1.3377 N.4       1 <0>        -0.3919
     55 H27         3.8135   12.0509   -0.7988 H         1 <0>         0.4336
@<TRIPOS>BOND
     1    1    2 1
     2    1   29 1
     3    1   30 1
     4    1   31 1
     5    2   32 1
     6    2   33 1
     7    2   54 1
     8    3    4 1
     9    3   34 1
    10    3   35 1
    11    3   54 1
    12    4   36 1
    13    4   37 1
    14    4   38 1
    15    5    6 1
    16    5   39 1
    17    5   40 1
    18    5   54 1
    19    6    7 1
    20    6    8 1
    21    6   28 1
    22    8   13 ar
    23    8    9 ar
    24    9   10 ar
    25    9   41 1
    26   10   11 ar
    27   10   18 1
    28   11   12 ar
    29   12   17 ar
    30   12   13 ar
    31   13   14 ar
    32   14   15 ar
    33   14   42 1
    34   15   16 ar
    35   15   43 1
    36   16   17 ar
    37   16   44 1
    38   17   45 1
    39   18   27 ar
    40   18   19 ar
    41   19   20 ar
    42   19   46 1
    43   20   21 ar
    44   20   47 1
    45   21   26 ar
    46   21   22 ar
    47   22   23 ar
    48   22   48 1
    49   23   24 ar
    50   23   49 1
    51   24   25 ar
    52   24   50 1
    53   25   26 ar
    54   25   51 1
    55   26   27 ar
    56   27   52 1
    57   28   53 1
    58   54   55 1
@<TRIPOS>MOLECULE
ZINC05343195
   44    47     0     0     0
SMALL
USER_CHARGES
2-(4-oxo-3H-quinazolin-2-yl)-3-[5-(1-piperidyl)-2-furyl]-prop-2-enenitrile
@<TRIPOS>ATOM
      1 C1         -4.7968    5.6124    0.0771 C.ar      1 <0>        -0.1253
      2 C2         -3.5746    6.2727    0.0745 C.ar      1 <0>        -0.0741
      3 C3         -2.3995    5.5765    0.0605 C.ar      1 <0>        -0.1048
      4 C4         -2.4201    4.1778    0.0478 C.ar      1 <0>         0.1982
      5 C5         -3.6638    3.5045    0.0504 C.ar      1 <0>        -0.2564
      6 C6         -4.8503    4.2357    0.0656 C.ar      1 <0>        -0.0838
      7 C7         -3.6598    2.0350    0.0312 C.ar      1 <0>         0.4480
      8 O1         -4.6989    1.4010    0.0379 O.3       1 <0>        -0.3748
      9 N1         -2.4581    1.4125    0.0165 N.ar      1 <0>        -0.5707
     10 H1         -5.4744    2.0322    0.0486 H         1 <0>         0.4303
     11 C8         -1.2982    2.1443    0.0208 C.ar      1 <0>         0.4311
     12 N2         -1.2823    3.4578    0.0331 N.ar      1 <0>        -0.5479
     13 C9         -0.0173    1.4278    0.0113 C.2       1 <0>        -0.0513
     14 C10         1.1771    2.1392    0.0042 C.2       1 <0>         0.0861
     15 C11         2.3989    1.4558   -0.0107 C.2       1 <0>        -0.0685
     16 C12         3.6594    2.0386   -0.0247 C.2       1 <0>        -0.0925
     17 C13         4.5837    0.9959   -0.0342 C.2       1 <0>        -0.2405
     18 C14         3.8670   -0.1810   -0.0340 C.2       1 <0>         0.2267
     19 O2          2.5578    0.1125   -0.0198 O.3       1 <0>        -0.1749
     20 N3          4.4054   -1.4490   -0.0464 N.pl3     1 <0>        -0.4376
     21 C15         5.3093   -1.6258   -1.1903 C.3       1 <0>         0.0548
     22 C16         5.9983   -2.9887   -1.0917 C.3       1 <0>        -0.1185
     23 C17         4.9368   -4.0922   -1.0807 C.3       1 <0>        -0.1269
     24 C18         3.9799   -3.8574    0.0913 C.3       1 <0>        -0.1183
     25 C19         3.3493   -2.4693   -0.0415 C.3       1 <0>         0.0471
     26 C20         0.0021   -0.0041    0.0034 C.1       1 <0>         0.2687
     27 N4          0.0175   -1.1399   -0.0028 N.1       1 <0>        -0.4104
     28 H2         -5.7135    6.1834    0.0889 H         1 <0>         0.1342
     29 H3         -3.5531    7.3524    0.0835 H         1 <0>         0.1362
     30 H4         -1.4573    6.1043    0.0585 H         1 <0>         0.1431
     31 H5         -5.8033    3.7276    0.0677 H         1 <0>         0.1297
     32 H6          1.1624    3.2191    0.0101 H         1 <0>         0.1853
     33 H7          3.8806    3.0957   -0.0256 H         1 <0>         0.1665
     34 H8          5.6594    1.0920   -0.0440 H         1 <0>         0.1595
     35 H9          4.7371   -1.5742   -2.1166 H         1 <0>         0.0524
     36 H10         6.0617   -0.8371   -1.1839 H         1 <0>         0.0915
     37 H11         6.5818   -3.0359   -0.1723 H         1 <0>         0.0774
     38 H12         6.6572   -3.1262   -1.9490 H         1 <0>         0.0792
     39 H13         5.4209   -5.0622   -0.9670 H         1 <0>         0.0724
     40 H14         4.3787   -4.0701   -2.0167 H         1 <0>         0.0630
     41 H15         4.5316   -3.9182    1.0294 H         1 <0>         0.0755
     42 H16         3.1968   -4.6155    0.0792 H         1 <0>         0.0773
     43 H17         2.6783   -2.2933    0.7992 H         1 <0>         0.0882
     44 H18         2.7864   -2.4137   -0.9732 H         1 <0>         0.0545
@<TRIPOS>BOND
     1    1    6 ar
     2    1    2 ar
     3    1   28 1
     4    2    3 ar
     5    2   29 1
     6    3    4 ar
     7    3   30 1
     8    4    5 ar
     9    4   12 ar
    10    5    6 ar
    11    5    7 ar
    12    6   31 1
    13    7    9 ar
    14    7    8 1
    15    8   10 1
    16    9   11 ar
    17   11   13 1
    18   11   12 ar
    19   13   14 2
    20   13   26 1
    21   14   15 1
    22   14   32 1
    23   15   19 1
    24   15   16 2
    25   16   17 1
    26   16   33 1
    27   17   18 2
    28   17   34 1
    29   18   19 1
    30   18   20 1
    31   20   25 1
    32   20   21 1
    33   21   22 1
    34   21   35 1
    35   21   36 1
    36   22   23 1
    37   22   37 1
    38   22   38 1
    39   23   24 1
    40   23   39 1
    41   23   40 1
    42   24   25 1
    43   24   41 1
    44   24   42 1
    45   25   43 1
    46   25   44 1
    47   26   27 3
@<TRIPOS>MOLECULE
ZINC02227451
   55    58     0     0     0
SMALL
USER_CHARGES
2-diethylamino-1-[2-(2-naphthyl)-4-quinolyl]-ethanol
@<TRIPOS>ATOM
      1 C1          7.0053   11.3096   -1.5429 C.3       1 <0>        -0.1912
      2 C2          5.8645   11.9318   -0.7352 C.3       1 <0>        -0.0175
      3 C3          4.5056   12.0745   -2.7341 C.3       1 <0>        -0.0127
      4 C4          4.3757   13.5990   -2.7241 C.3       1 <0>        -0.1881
      5 C5          4.3482   10.1304   -1.2995 C.3       1 <0>        -0.0450
      6 C6          4.1837    9.6933    0.1575 C.3       1 <0>         0.1329
      7 H1          5.0504   10.0170    0.7339 H         1 <0>         0.1364
      8 C7          4.0699    8.1920    0.2218 C.ar      1 <0>        -0.0806
      9 C8          2.8501    7.5838    0.2474 C.ar      1 <0>        -0.1376
     10 C9          2.7687    6.1837    0.3069 C.ar      1 <0>         0.2138
     11 N1          3.8520    5.4313    0.3445 N.ar      1 <0>        -0.4543
     12 C10         5.0726    5.9723    0.3163 C.ar      1 <0>         0.1409
     13 C11         5.2214    7.3809    0.2565 C.ar      1 <0>        -0.0925
     14 C12         6.5081    7.9414    0.2334 C.ar      1 <0>        -0.1253
     15 C13         7.5987    7.1266    0.2678 C.ar      1 <0>        -0.0928
     16 C14         7.4552    5.7418    0.3266 C.ar      1 <0>        -0.0978
     17 C15         6.2234    5.1641    0.3509 C.ar      1 <0>        -0.0796
     18 C16         1.4356    5.5361    0.3342 C.ar      1 <0>        -0.0747
     19 C17         0.2757    6.3279    0.3008 C.ar      1 <0>        -0.1027
     20 C18        -0.9570    5.7591    0.3247 C.ar      1 <0>        -0.1019
     21 C19        -1.0844    4.3594    0.3836 C.ar      1 <0>        -0.0384
     22 C20        -2.3486    3.7469    0.4088 C.ar      1 <0>        -0.1129
     23 C21        -2.4399    2.3897    0.4607 C.ar      1 <0>        -0.1015
     24 C22        -1.2962    1.5943    0.5002 C.ar      1 <0>        -0.1131
     25 C23        -0.0548    2.1515    0.4773 C.ar      1 <0>        -0.0993
     26 C24         0.0793    3.5502    0.4183 C.ar      1 <0>        -0.0612
     27 C25         1.3442    4.1576    0.3927 C.ar      1 <0>        -0.0415
     28 O1          3.0020   10.2844    0.7017 O.3       1 <0>        -0.5417
     29 H2          7.9498   11.4753   -1.0248 H         1 <0>         0.1092
     30 H3          6.8327   10.2387   -1.6501 H         1 <0>         0.0790
     31 H4          7.0461   11.7715   -2.5294 H         1 <0>         0.0845
     32 H5          5.9773   13.0159   -0.7228 H         1 <0>         0.1348
     33 H6          5.8930   11.5518    0.2860 H         1 <0>         0.1276
     34 H7          5.4113   11.7906   -3.2701 H         1 <0>         0.1337
     35 H8          3.6382   11.6392   -3.2303 H         1 <0>         0.1284
     36 H9          3.4843   13.8840   -2.1653 H         1 <0>         0.0811
     37 H10         5.2557   14.0355   -2.2517 H         1 <0>         0.0804
     38 H11         4.2946   13.9635   -3.7481 H         1 <0>         0.1071
     39 H12         5.1985    9.6108   -1.7409 H         1 <0>         0.1463
     40 H13         3.4437    9.8857   -1.8565 H         1 <0>         0.1380
     41 H14         1.9484    8.1778    0.2217 H         1 <0>         0.1422
     42 H15         6.6326    9.0133    0.1875 H         1 <0>         0.1210
     43 H16         8.5880    7.5594    0.2493 H         1 <0>         0.1340
     44 H17         8.3358    5.1169    0.3530 H         1 <0>         0.1391
     45 H18         6.1296    4.0892    0.3969 H         1 <0>         0.1438
     46 H19         0.3656    7.4033    0.2559 H         1 <0>         0.1228
     47 H20        -1.8395    6.3811    0.2981 H         1 <0>         0.1335
     48 H21        -3.2441    4.3501    0.3825 H         1 <0>         0.1311
     49 H22        -3.4134    1.9224    0.4759 H         1 <0>         0.1286
     50 H23        -1.3965    0.5199    0.5452 H         1 <0>         0.1289
     51 H24         0.8229    1.5227    0.5047 H         1 <0>         0.1314
     52 H25         2.2389    3.5533    0.4189 H         1 <0>         0.1420
     53 H26         2.1900   10.0396    0.2370 H         1 <0>         0.3897
     54 N2          4.5580   11.5930   -1.3377 N.4       1 <0>        -0.3919
     55 H27         3.8135   12.0509   -0.7988 H         1 <0>         0.4336
@<TRIPOS>BOND
     1    1    2 1
     2    1   29 1
     3    1   30 1
     4    1   31 1
     5    2   32 1
     6    2   33 1
     7    2   54 1
     8    3    4 1
     9    3   34 1
    10    3   35 1
    11    3   54 1
    12    4   36 1
    13    4   37 1
    14    4   38 1
    15    5    6 1
    16    5   39 1
    17    5   40 1
    18    5   54 1
    19    6    7 1
    20    6    8 1
    21    6   28 1
    22    8   13 ar
    23    8    9 ar
    24    9   10 ar
    25    9   41 1
    26   10   11 ar
    27   10   18 1
    28   11   12 ar
    29   12   17 ar
    30   12   13 ar
    31   13   14 ar
    32   14   15 ar
    33   14   42 1
    34   15   16 ar
    35   15   43 1
    36   16   17 ar
    37   16   44 1
    38   17   45 1
    39   18   27 ar
    40   18   19 ar
    41   19   20 ar
    42   19   46 1
    43   20   21 ar
    44   20   47 1
    45   21   26 ar
    46   21   22 ar
    47   22   23 ar
    48   22   48 1
    49   23   24 ar
    50   23   49 1
    51   24   25 ar
    52   24   50 1
    53   25   26 ar
    54   25   51 1
    55   26   27 ar
    56   27   52 1
    57   28   53 1
    58   54   55 1
@<TRIPOS>MOLECULE
ZINC05343200
   44    46     0     0     0
SMALL
USER_CHARGES
4-(2-hydroxyethylaminomethylene)-2-(2-methoxyphenyl)-isoquinoline-1,3-dione
@<TRIPOS>ATOM
      1 C1          3.1421   -1.9337    3.3996 C.3       1 <0>         0.0241
      2 O1          2.8781   -1.1233    2.2526 O.3       1 <0>        -0.3225
      3 C2          3.0847   -1.6913    1.0348 C.ar      1 <0>         0.1554
      4 C3          3.5271   -3.0015    0.9454 C.ar      1 <0>        -0.1991
      5 C4          3.7413   -3.5759   -0.2935 C.ar      1 <0>        -0.0500
      6 C5          3.5111   -2.8479   -1.4464 C.ar      1 <0>        -0.1430
      7 C6          3.0652   -1.5424   -1.3660 C.ar      1 <0>        -0.0501
      8 C7          2.8475   -0.9593   -0.1263 C.ar      1 <0>         0.0568
      9 N1          2.3955    0.3657   -0.0421 N.am      1 <0>        -0.4902
     10 C8          3.3052    1.3521    0.0133 C.2       1 <0>         0.5574
     11 O2          4.4896    1.0754   -0.0101 O.2       1 <0>        -0.4400
     12 C9          2.8943    2.7589    0.1024 C.ar      1 <0>        -0.1105
     13 C10         3.8341    3.7887    0.1607 C.ar      1 <0>        -0.0252
     14 C11         3.4081    5.0968    0.2441 C.ar      1 <0>        -0.0958
     15 C12         2.0548    5.4012    0.2707 C.ar      1 <0>        -0.0564
     16 C13         1.1091    4.3979    0.2145 C.ar      1 <0>        -0.1508
     17 C14         1.5194    3.0725    0.1296 C.ar      1 <0>        -0.0639
     18 C15         0.5484    1.9602    0.0663 C.3       1 <0>        -0.1115
     19 C16        -0.8077    2.2008    0.0829 C.2       1 <0>         0.3857
     20 C17        -2.7146    3.6791    0.7788 C.3       1 <0>         0.0720
     21 C18        -2.8604    4.9968    1.5425 C.3       1 <0>         0.0464
     22 O3         -2.2438    6.0495    0.7985 O.3       1 <0>        -0.5788
     23 C19         1.0720    0.5923   -0.0208 C.2       1 <0>         0.5547
     24 O4          0.2989   -0.3466   -0.0741 O.2       1 <0>        -0.4598
     25 H1          2.9372   -1.3610    4.3040 H         1 <0>         0.1047
     26 H2          2.5029   -2.8164    3.3758 H         1 <0>         0.0632
     27 H3          4.1875   -2.2420    3.3937 H         1 <0>         0.0646
     28 H4          3.7082   -3.5726    1.8438 H         1 <0>         0.1419
     29 H5          4.0897   -4.5959   -0.3613 H         1 <0>         0.1399
     30 H6          3.6805   -3.3006   -2.4123 H         1 <0>         0.1410
     31 H7          2.8858   -0.9763   -2.2681 H         1 <0>         0.1363
     32 H8          4.8897    3.5618    0.1410 H         1 <0>         0.1594
     33 H9          4.1358    5.8936    0.2890 H         1 <0>         0.1539
     34 H10         1.7389    6.4319    0.3364 H         1 <0>         0.1517
     35 H11         0.0570    4.6408    0.2362 H         1 <0>         0.1478
     36 H12        -1.4853    1.5054   -0.3900 H         1 <0>         0.2417
     37 H13         0.3329    1.6528    0.9932 H         1 <0>         0.1645
     38 H14        -3.1193    3.7953   -0.2267 H         1 <0>         0.1333
     39 H15        -3.2605    2.8938    1.3016 H         1 <0>         0.1379
     40 H16        -3.9179    5.2212    1.6815 H         1 <0>         0.0962
     41 H17        -2.3769    4.9081    2.5155 H         1 <0>         0.0684
     42 H18        -2.2981    6.9161    1.2242 H         1 <0>         0.4049
     43 N2         -1.2463    3.3589    0.7256 N.pl3     1 <0>        -0.6110
     44 H19        -0.5666    3.9926    1.1623 H         1 <0>         0.4548
@<TRIPOS>BOND
     1    1    2 1
     2    1   25 1
     3    1   26 1
     4    1   27 1
     5    2    3 1
     6    3    8 ar
     7    3    4 ar
     8    4    5 ar
     9    4   28 1
    10    5    6 ar
    11    5   29 1
    12    6    7 ar
    13    6   30 1
    14    7    8 ar
    15    7   31 1
    16    8    9 1
    17    9   23 am
    18    9   10 am
    19   10   11 2
    20   10   12 1
    21   12   17 ar
    22   12   13 ar
    23   13   14 ar
    24   13   32 1
    25   14   15 ar
    26   14   33 1
    27   15   16 ar
    28   15   34 1
    29   16   17 ar
    30   16   35 1
    31   17   18 1
    32   18   23 1
    33   18   37 1
    34   18   19 1
    35   19   36 1
    36   19   43 2
    37   20   21 1
    38   20   38 1
    39   20   39 1
    40   20   43 1
    41   21   22 1
    42   21   40 1
    43   21   41 1
    44   22   42 1
    45   23   24 2
    46   43   44 1
@<TRIPOS>MOLECULE
ZINC02227498
   35    36     0     0     0
SMALL
USER_CHARGES
ethyl 1-(5-chloro-6-oxo-1H-pyridazin-4-yl)piperidine-3-carboxylate
@<TRIPOS>ATOM
      1 C1          0.0884    6.3445   -1.9430 C.3       1 <0>        -0.1537
      2 C2          0.8284    5.7110   -0.7631 C.3       1 <0>         0.0613
      3 O1          0.7992    4.2651   -0.8935 O.3       1 <0>        -0.3541
      4 C3          1.4090    3.5542    0.0680 C.2       1 <0>         0.4686
      5 O2          1.9492    4.1213    0.9881 O.2       1 <0>        -0.5052
      6 C4          1.4200    2.0488   -0.0001 C.3       1 <0>        -0.0748
      7 H1          1.9165    1.7290   -0.9162 H         1 <0>         0.1228
      8 C5         -0.0193    1.5262    0.0104 C.3       1 <0>        -0.1150
      9 C6          0.0020   -0.0049    0.0017 C.3       1 <0>        -0.1130
     10 C7          0.7932   -0.5061    1.2120 C.3       1 <0>         0.0536
     11 N1          2.1628    0.0206    1.1552 N.pl3     1 <0>        -0.4998
     12 C8          2.1701    1.4880    1.2101 C.3       1 <0>         0.0738
     13 C9          2.9436   -0.5177    2.1643 C.ar      1 <0>         0.1576
     14 C10         2.6410   -0.2527    3.5169 C.ar      1 <0>         0.0089
     15 N2          3.3708   -0.7634    4.4686 N.ar      1 <0>        -0.1995
     16 N3          4.4678   -1.5806    4.1767 N.ar      1 <0>        -0.3112
     17 H2          5.8538   -2.6647    1.6605 H         1 <0>         0.4195
     18 C11         4.7962   -1.8558    2.8990 C.ar      1 <0>         0.3570
     19 O3          5.7576   -2.5675    2.6511 O.3       1 <0>        -0.3854
     20 C12         4.0272   -1.3200    1.8556 C.ar      1 <0>        -0.1538
     21 Cl1         4.4293   -1.6586    0.2012 Cl        1 <0>        -0.0054
     22 H3          0.5739    6.0538   -2.8747 H         1 <0>         0.0677
     23 H4         -0.9460    6.0009   -1.9498 H         1 <0>         0.0676
     24 H5          0.1102    7.4298   -1.8451 H         1 <0>         0.0817
     25 H6          0.3429    6.0017    0.1685 H         1 <0>         0.0713
     26 H7          1.8628    6.0544   -0.7563 H         1 <0>         0.0713
     27 H8         -0.5448    1.8882   -0.8732 H         1 <0>         0.0865
     28 H9         -0.5280    1.8782    0.9078 H         1 <0>         0.0699
     29 H10        -1.0190   -0.3832    0.0522 H         1 <0>         0.0840
     30 H11         0.4762   -0.3570   -0.9143 H         1 <0>         0.0813
     31 H12         0.3106   -0.1652    2.1279 H         1 <0>         0.0511
     32 H13         0.8225   -1.5957    1.2007 H         1 <0>         0.0861
     33 H14         1.6810    1.8195    2.1261 H         1 <0>         0.0599
     34 H15         3.1992    1.8468    1.1976 H         1 <0>         0.0913
     35 H16         1.7996    0.3771    3.7651 H         1 <0>         0.1783
@<TRIPOS>BOND
     1    1    2 1
     2    1   22 1
     3    1   23 1
     4    1   24 1
     5    2    3 1
     6    2   25 1
     7    2   26 1
     8    3    4 1
     9    4    5 2
    10    4    6 1
    11    6    7 1
    12    6   12 1
    13    6    8 1
    14    8    9 1
    15    8   27 1
    16    8   28 1
    17    9   10 1
    18    9   29 1
    19    9   30 1
    20   10   11 1
    21   10   31 1
    22   10   32 1
    23   11   12 1
    24   11   13 1
    25   12   33 1
    26   12   34 1
    27   13   20 ar
    28   13   14 ar
    29   14   35 1
    30   14   15 ar
    31   15   16 ar
    32   16   18 ar
    33   17   19 1
    34   18   19 1
    35   18   20 ar
    36   20   21 1
@<TRIPOS>MOLECULE
ZINC02227497
   35    36     0     0     0
SMALL
USER_CHARGES
ethyl 1-(5-chloro-6-oxo-1H-pyridazin-4-yl)piperidine-3-carboxylate
@<TRIPOS>ATOM
      1 C1         -0.7390    1.5626    1.2693 C.3       1 <0>        -0.1538
      2 C2         -0.0225    1.0692    0.0108 C.3       1 <0>         0.0613
      3 O1         -0.7215    1.5544   -1.1658 O.3       1 <0>        -0.3542
      4 C3         -0.2172    1.2076   -2.3604 C.2       1 <0>         0.4685
      5 O2          0.7754    0.5213   -2.4210 O.2       1 <0>        -0.5052
      6 C4         -0.8891    1.6741   -3.6261 C.3       1 <0>        -0.0747
      7 H1         -1.9129    1.3012   -3.6534 H         1 <0>         0.1227
      8 C5         -0.9005    3.2048   -3.6644 C.3       1 <0>        -0.1150
      9 C6         -1.5304    3.6698   -4.9804 C.3       1 <0>        -0.1130
     10 C7         -0.7425    3.0820   -6.1532 C.3       1 <0>         0.0536
     11 N1         -0.7619    1.6159   -6.0717 N.pl3     1 <0>        -0.4998
     12 C8         -0.1198    1.1441   -4.8383 C.3       1 <0>         0.0738
     13 C9         -0.1696    1.0489   -7.1877 C.ar      1 <0>         0.1576
     14 C10         1.2015    1.2563   -7.4489 C.ar      1 <0>         0.0088
     15 N2          1.7613    0.7237   -8.4987 N.ar      1 <0>        -0.1994
     16 N3          1.0192   -0.0502   -9.3969 N.ar      1 <0>        -0.3113
     17 H2         -1.8802   -1.0263   -9.6573 H         1 <0>         0.4195
     18 C11        -0.2918   -0.2785   -9.1841 C.ar      1 <0>         0.3570
     19 O3         -0.9319   -0.9623   -9.9681 O.3       1 <0>        -0.3853
     20 C12        -0.9166    0.2742   -8.0565 C.ar      1 <0>        -0.1539
     21 Cl1        -2.6025   -0.0100   -7.7557 Cl        1 <0>        -0.0054
     22 H3         -0.2144    1.1985    2.1526 H         1 <0>         0.0818
     23 H4         -0.7505    2.6526    1.2772 H         1 <0>         0.0676
     24 H5         -1.7628    1.1886    1.2749 H         1 <0>         0.0677
     25 H6         -0.0111   -0.0208    0.0029 H         1 <0>         0.0713
     26 H7          1.0012    1.4433    0.0053 H         1 <0>         0.0713
     27 H8         -1.4843    3.5858   -2.8266 H         1 <0>         0.0865
     28 H9          0.1212    3.5786   -3.5976 H         1 <0>         0.0699
     29 H10        -1.5027    4.7582   -5.0324 H         1 <0>         0.0840
     30 H11        -2.5645    3.3289   -5.0294 H         1 <0>         0.0813
     31 H12         0.2881    3.4344   -6.1114 H         1 <0>         0.0510
     32 H13        -1.1971    3.3996   -7.0916 H         1 <0>         0.0861
     33 H14         0.9080    1.5056   -4.8026 H         1 <0>         0.0599
     34 H15        -0.1220    0.0542   -4.8216 H         1 <0>         0.0913
     35 H16         1.7909    1.8602   -6.7747 H         1 <0>         0.1783
@<TRIPOS>BOND
     1    1    2 1
     2    1   22 1
     3    1   23 1
     4    1   24 1
     5    2    3 1
     6    2   25 1
     7    2   26 1
     8    3    4 1
     9    4    5 2
    10    4    6 1
    11    6    7 1
    12    6   12 1
    13    6    8 1
    14    8    9 1
    15    8   27 1
    16    8   28 1
    17    9   10 1
    18    9   29 1
    19    9   30 1
    20   10   11 1
    21   10   31 1
    22   10   32 1
    23   11   12 1
    24   11   13 1
    25   12   33 1
    26   12   34 1
    27   13   20 ar
    28   13   14 ar
    29   14   35 1
    30   14   15 ar
    31   15   16 ar
    32   16   18 ar
    33   17   19 1
    34   18   19 1
    35   18   20 ar
    36   20   21 1
@<TRIPOS>MOLECULE
ZINC05343214
   29    31     0     0     0
SMALL
USER_CHARGES
4-[2-chloro-5-(trifluoromethyl)phenyl]-5-(2H-pyrazol-3-yl)-1,2,4-triazole-3-thiol
@<TRIPOS>ATOM
      1 C1         -1.2460    3.7901    0.0329 C.ar      1 <0>        -0.0284
      2 C2         -1.2270    2.4073    0.0209 C.ar      1 <0>        -0.0958
      3 C3         -0.0215    1.7317    0.0116 C.ar      1 <0>        -0.0001
      4 C4          1.1718    2.4438    0.0040 C.ar      1 <0>         0.0940
      5 C5          1.1485    3.8314    0.0112 C.ar      1 <0>        -0.0354
      6 C6         -0.0601    4.5007    0.0258 C.ar      1 <0>        -0.1674
      7 C7         -0.0857    6.0075    0.0337 C.3       1 <0>         0.5129
      8 F1         -0.1059    6.4804   -1.2828 F         1 <0>        -0.1672
      9 F2         -1.2295    6.4510    0.7061 F         1 <0>        -0.1670
     10 F3          1.0546    6.4899    0.6850 F         1 <0>        -0.1708
     11 N1          2.3968    1.7618   -0.0113 N.pl3     1 <0>        -0.4233
     12 C8          3.1358    1.3503    1.0777 C.2       1 <0>         0.2751
     13 N2          4.2093    0.7527    0.6101 N.2       1 <0>        -0.2415
     14 N3          4.1930    0.7619   -0.6746 N.2       1 <0>        -0.2170
     15 C9          3.1064    1.3599   -1.1101 C.2       1 <0>         0.1715
     16 S1          2.6509    1.6030   -2.7948 S.3       1 <0>         0.0075
     17 C10         2.7883    1.5437    2.4960 C.2       1 <0>         0.1278
     18 C11         3.6347    1.3950    3.5751 C.2       1 <0>        -0.1874
     19 C12         2.9031    1.6756    4.7282 C.2       1 <0>         0.0516
     20 N4          1.6750    1.9709    4.3851 N.2       1 <0>        -0.2580
     21 N5          1.5664    1.8982    2.9908 N.pl3     1 <0>        -0.4705
     22 H1          0.7415    2.0744    2.4538 H         1 <0>         0.4378
     23 Cl1         0.0021   -0.0041    0.0020 Cl        1 <0>        -0.0134
     24 H2         -2.1892    4.3160    0.0436 H         1 <0>         0.1646
     25 H3         -2.1551    1.8550    0.0223 H         1 <0>         0.1683
     26 H4          2.0743    4.3875    0.0057 H         1 <0>         0.1551
     27 H5          3.2630    2.8500   -3.0364 H         1 <0>         0.1116
     28 H6          4.6767    1.1139    3.5339 H         1 <0>         0.1673
     29 H7          3.2852    1.6486    5.7380 H         1 <0>         0.1984
@<TRIPOS>BOND
     1    1    6 ar
     2    1    2 ar
     3    1   24 1
     4    2    3 ar
     5    2   25 1
     6    3    4 ar
     7    3   23 1
     8    4    5 ar
     9    4   11 1
    10    5    6 ar
    11    5   26 1
    12    6    7 1
    13    7    8 1
    14    7    9 1
    15    7   10 1
    16   11   15 1
    17   11   12 1
    18   12   13 2
    19   12   17 1
    20   13   14 1
    21   14   15 2
    22   15   16 1
    23   16   27 1
    24   17   21 1
    25   17   18 2
    26   18   19 1
    27   18   28 1
    28   19   20 2
    29   19   29 1
    30   20   21 1
    31   21   22 1
@<TRIPOS>MOLECULE
ZINC05343225
   35    37     0     0     0
SMALL
USER_CHARGES
2-(4-hydroxy-6-phenyl-pyrimidin-2-yl)sulfanyl-N-(1,2,4-triazol-4-yl)acetamide
@<TRIPOS>ATOM
      1 C1         -4.9198   -0.3211    0.0248 C.ar      1 <0>        -0.0943
      2 C2         -4.9110    1.0621    0.0323 C.ar      1 <0>        -0.1272
      3 C3         -3.7129    1.7471    0.0300 C.ar      1 <0>        -0.0655
      4 C4         -2.5104    1.0425    0.0206 C.ar      1 <0>        -0.0696
      5 C5         -2.5254   -0.3510    0.0078 C.ar      1 <0>        -0.0863
      6 C6         -3.7294   -1.0256    0.0159 C.ar      1 <0>        -0.1257
      7 C7         -1.2195    1.7732    0.0182 C.ar      1 <0>         0.2678
      8 C8         -0.0126    1.0758    0.0085 C.ar      1 <0>        -0.2516
      9 C9          1.1732    1.8046    0.0002 C.ar      1 <0>         0.3891
     10 N1          1.1172    3.1315   -0.0023 N.ar      1 <0>        -0.5990
     11 C10        -0.0480    3.7632    0.0124 C.ar      1 <0>         0.3248
     12 N2         -1.1971    3.1053    0.0250 N.ar      1 <0>        -0.5158
     13 S1         -0.0683    5.5252    0.0153 S.3       1 <0>         0.1191
     14 C11         1.7104    5.8600   -0.0052 C.3       1 <0>        -0.1485
     15 C12         1.9411    7.3493   -0.0056 C.2       1 <0>         0.5404
     16 O1          0.9961    8.1094    0.0066 O.2       1 <0>        -0.4960
     17 N3          3.1976    7.8365   -0.0198 N.am      1 <0>        -0.5122
     18 N4          3.4121    9.2210   -0.0202 N.pl3     1 <0>        -0.2807
     19 C13         2.4673   10.1921   -0.0136 C.2       1 <0>         0.1760
     20 N5          3.0898   11.3394   -0.0145 N.2       1 <0>        -0.2863
     21 N6          4.3605   11.1425   -0.0293 N.2       1 <0>        -0.2738
     22 C14         4.6065    9.8607   -0.0334 C.2       1 <0>         0.1433
     23 O2          2.3698    1.1683   -0.0052 O.3       1 <0>        -0.4390
     24 H1         -5.8597   -0.8531    0.0263 H         1 <0>         0.1283
     25 H2         -5.8434    1.6070    0.0396 H         1 <0>         0.1307
     26 H3         -3.7071    2.8270    0.0359 H         1 <0>         0.1386
     27 H4         -1.5966   -0.9020   -0.0041 H         1 <0>         0.1294
     28 H5         -3.7422   -2.1055    0.0101 H         1 <0>         0.1305
     29 H6          0.0021   -0.0041    0.0076 H         1 <0>         0.1568
     30 H7          2.1730    5.4210    0.8788 H         1 <0>         0.1377
     31 H8          2.1518    5.4237   -0.9011 H         1 <0>         0.1377
     32 H9          3.9535    7.2285   -0.0297 H         1 <0>         0.4402
     33 H10         1.3975   10.0444   -0.0063 H         1 <0>         0.2403
     34 H11         5.5814    9.3961   -0.0447 H         1 <0>         0.2271
     35 H12         3.1067    1.8443   -0.0108 H         1 <0>         0.4134
@<TRIPOS>BOND
     1    1    6 ar
     2    1    2 ar
     3    1   24 1
     4    2    3 ar
     5    2   25 1
     6    3    4 ar
     7    3   26 1
     8    4    5 ar
     9    4    7 1
    10    5    6 ar
    11    5   27 1
    12    6   28 1
    13    7   12 ar
    14    7    8 ar
    15    8   29 1
    16    8    9 ar
    17    9   23 1
    18    9   10 ar
    19   10   11 ar
    20   11   13 1
    21   11   12 ar
    22   13   14 1
    23   14   15 1
    24   14   30 1
    25   14   31 1
    26   15   16 2
    27   15   17 am
    28   17   18 1
    29   17   32 1
    30   18   22 1
    31   18   19 1
    32   19   20 2
    33   19   33 1
    34   20   21 1
    35   21   22 2
    36   22   34 1
    37   23   35 1
@<TRIPOS>MOLECULE
ZINC02228311
   55    58     0     0     0
SMALL
USER_CHARGES
2-diethylamino-1-[2-(2-naphthyl)-4-quinolyl]-ethanol
@<TRIPOS>ATOM
      1 C1          7.0053   11.3096   -1.5429 C.3       1 <0>        -0.1912
      2 C2          5.8645   11.9318   -0.7352 C.3       1 <0>        -0.0175
      3 C3          4.5056   12.0745   -2.7341 C.3       1 <0>        -0.0127
      4 C4          4.3757   13.5990   -2.7241 C.3       1 <0>        -0.1881
      5 C5          4.3482   10.1304   -1.2995 C.3       1 <0>        -0.0450
      6 C6          4.1837    9.6933    0.1575 C.3       1 <0>         0.1329
      7 H1          5.0504   10.0170    0.7339 H         1 <0>         0.1364
      8 C7          4.0699    8.1920    0.2218 C.ar      1 <0>        -0.0806
      9 C8          2.8501    7.5838    0.2474 C.ar      1 <0>        -0.1376
     10 C9          2.7687    6.1837    0.3069 C.ar      1 <0>         0.2138
     11 N1          3.8520    5.4313    0.3445 N.ar      1 <0>        -0.4543
     12 C10         5.0726    5.9723    0.3163 C.ar      1 <0>         0.1409
     13 C11         5.2214    7.3809    0.2565 C.ar      1 <0>        -0.0925
     14 C12         6.5081    7.9414    0.2334 C.ar      1 <0>        -0.1253
     15 C13         7.5987    7.1266    0.2678 C.ar      1 <0>        -0.0928
     16 C14         7.4552    5.7418    0.3266 C.ar      1 <0>        -0.0978
     17 C15         6.2234    5.1641    0.3509 C.ar      1 <0>        -0.0796
     18 C16         1.4356    5.5361    0.3342 C.ar      1 <0>        -0.0747
     19 C17         0.2757    6.3279    0.3008 C.ar      1 <0>        -0.1027
     20 C18        -0.9570    5.7591    0.3247 C.ar      1 <0>        -0.1019
     21 C19        -1.0844    4.3594    0.3836 C.ar      1 <0>        -0.0384
     22 C20        -2.3486    3.7469    0.4088 C.ar      1 <0>        -0.1129
     23 C21        -2.4399    2.3897    0.4607 C.ar      1 <0>        -0.1015
     24 C22        -1.2962    1.5943    0.5002 C.ar      1 <0>        -0.1131
     25 C23        -0.0548    2.1515    0.4773 C.ar      1 <0>        -0.0993
     26 C24         0.0793    3.5502    0.4183 C.ar      1 <0>        -0.0612
     27 C25         1.3442    4.1576    0.3927 C.ar      1 <0>        -0.0415
     28 O1          3.0020   10.2844    0.7017 O.3       1 <0>        -0.5417
     29 H2          7.9498   11.4753   -1.0248 H         1 <0>         0.1092
     30 H3          6.8327   10.2387   -1.6501 H         1 <0>         0.0790
     31 H4          7.0461   11.7715   -2.5294 H         1 <0>         0.0845
     32 H5          5.9773   13.0159   -0.7228 H         1 <0>         0.1348
     33 H6          5.8930   11.5518    0.2860 H         1 <0>         0.1276
     34 H7          5.4113   11.7906   -3.2701 H         1 <0>         0.1337
     35 H8          3.6382   11.6392   -3.2303 H         1 <0>         0.1284
     36 H9          3.4843   13.8840   -2.1653 H         1 <0>         0.0811
     37 H10         5.2557   14.0355   -2.2517 H         1 <0>         0.0804
     38 H11         4.2946   13.9635   -3.7481 H         1 <0>         0.1071
     39 H12         5.1985    9.6108   -1.7409 H         1 <0>         0.1463
     40 H13         3.4437    9.8857   -1.8565 H         1 <0>         0.1380
     41 H14         1.9484    8.1778    0.2217 H         1 <0>         0.1422
     42 H15         6.6326    9.0133    0.1875 H         1 <0>         0.1210
     43 H16         8.5880    7.5594    0.2493 H         1 <0>         0.1340
     44 H17         8.3358    5.1169    0.3530 H         1 <0>         0.1391
     45 H18         6.1296    4.0892    0.3969 H         1 <0>         0.1438
     46 H19         0.3656    7.4033    0.2559 H         1 <0>         0.1228
     47 H20        -1.8395    6.3811    0.2981 H         1 <0>         0.1335
     48 H21        -3.2441    4.3501    0.3825 H         1 <0>         0.1311
     49 H22        -3.4134    1.9224    0.4759 H         1 <0>         0.1286
     50 H23        -1.3965    0.5199    0.5452 H         1 <0>         0.1289
     51 H24         0.8229    1.5227    0.5047 H         1 <0>         0.1314
     52 H25         2.2389    3.5533    0.4189 H         1 <0>         0.1420
     53 H26         2.1900   10.0396    0.2370 H         1 <0>         0.3897
     54 N2          4.5580   11.5930   -1.3377 N.4       1 <0>        -0.3919
     55 H27         3.8135   12.0509   -0.7988 H         1 <0>         0.4336
@<TRIPOS>BOND
     1    1    2 1
     2    1   29 1
     3    1   30 1
     4    1   31 1
     5    2   32 1
     6    2   33 1
     7    2   54 1
     8    3    4 1
     9    3   34 1
    10    3   35 1
    11    3   54 1
    12    4   36 1
    13    4   37 1
    14    4   38 1
    15    5    6 1
    16    5   39 1
    17    5   40 1
    18    5   54 1
    19    6    7 1
    20    6    8 1
    21    6   28 1
    22    8   13 ar
    23    8    9 ar
    24    9   10 ar
    25    9   41 1
    26   10   11 ar
    27   10   18 1
    28   11   12 ar
    29   12   17 ar
    30   12   13 ar
    31   13   14 ar
    32   14   15 ar
    33   14   42 1
    34   15   16 ar
    35   15   43 1
    36   16   17 ar
    37   16   44 1
    38   17   45 1
    39   18   27 ar
    40   18   19 ar
    41   19   20 ar
    42   19   46 1
    43   20   21 ar
    44   20   47 1
    45   21   26 ar
    46   21   22 ar
    47   22   23 ar
    48   22   48 1
    49   23   24 ar
    50   23   49 1
    51   24   25 ar
    52   24   50 1
    53   25   26 ar
    54   25   51 1
    55   26   27 ar
    56   27   52 1
    57   28   53 1
    58   54   55 1
@<TRIPOS>MOLECULE
ZINC02228349
   55    58     0     0     0
SMALL
USER_CHARGES
2-diethylamino-1-[2-(2-naphthyl)-4-quinolyl]-ethanol
@<TRIPOS>ATOM
      1 C1          7.0053   11.3096   -1.5429 C.3       1 <0>        -0.1912
      2 C2          5.8645   11.9318   -0.7352 C.3       1 <0>        -0.0175
      3 C3          4.5056   12.0745   -2.7341 C.3       1 <0>        -0.0127
      4 C4          4.3757   13.5990   -2.7241 C.3       1 <0>        -0.1881
      5 C5          4.3482   10.1304   -1.2995 C.3       1 <0>        -0.0450
      6 C6          4.1837    9.6933    0.1575 C.3       1 <0>         0.1329
      7 H1          5.0504   10.0170    0.7339 H         1 <0>         0.1364
      8 C7          4.0699    8.1920    0.2218 C.ar      1 <0>        -0.0806
      9 C8          2.8501    7.5838    0.2474 C.ar      1 <0>        -0.1376
     10 C9          2.7687    6.1837    0.3069 C.ar      1 <0>         0.2138
     11 N1          3.8520    5.4313    0.3445 N.ar      1 <0>        -0.4543
     12 C10         5.0726    5.9723    0.3163 C.ar      1 <0>         0.1409
     13 C11         5.2214    7.3809    0.2565 C.ar      1 <0>        -0.0925
     14 C12         6.5081    7.9414    0.2334 C.ar      1 <0>        -0.1253
     15 C13         7.5987    7.1266    0.2678 C.ar      1 <0>        -0.0928
     16 C14         7.4552    5.7418    0.3266 C.ar      1 <0>        -0.0978
     17 C15         6.2234    5.1641    0.3509 C.ar      1 <0>        -0.0796
     18 C16         1.4356    5.5361    0.3342 C.ar      1 <0>        -0.0747
     19 C17         0.2757    6.3279    0.3008 C.ar      1 <0>        -0.1027
     20 C18        -0.9570    5.7591    0.3247 C.ar      1 <0>        -0.1019
     21 C19        -1.0844    4.3594    0.3836 C.ar      1 <0>        -0.0384
     22 C20        -2.3486    3.7469    0.4088 C.ar      1 <0>        -0.1129
     23 C21        -2.4399    2.3897    0.4607 C.ar      1 <0>        -0.1015
     24 C22        -1.2962    1.5943    0.5002 C.ar      1 <0>        -0.1131
     25 C23        -0.0548    2.1515    0.4773 C.ar      1 <0>        -0.0993
     26 C24         0.0793    3.5502    0.4183 C.ar      1 <0>        -0.0612
     27 C25         1.3442    4.1576    0.3927 C.ar      1 <0>        -0.0415
     28 O1          3.0020   10.2844    0.7017 O.3       1 <0>        -0.5417
     29 H2          7.9498   11.4753   -1.0248 H         1 <0>         0.1092
     30 H3          6.8327   10.2387   -1.6501 H         1 <0>         0.0790
     31 H4          7.0461   11.7715   -2.5294 H         1 <0>         0.0845
     32 H5          5.9773   13.0159   -0.7228 H         1 <0>         0.1348
     33 H6          5.8930   11.5518    0.2860 H         1 <0>         0.1276
     34 H7          5.4113   11.7906   -3.2701 H         1 <0>         0.1337
     35 H8          3.6382   11.6392   -3.2303 H         1 <0>         0.1284
     36 H9          3.4843   13.8840   -2.1653 H         1 <0>         0.0811
     37 H10         5.2557   14.0355   -2.2517 H         1 <0>         0.0804
     38 H11         4.2946   13.9635   -3.7481 H         1 <0>         0.1071
     39 H12         5.1985    9.6108   -1.7409 H         1 <0>         0.1463
     40 H13         3.4437    9.8857   -1.8565 H         1 <0>         0.1380
     41 H14         1.9484    8.1778    0.2217 H         1 <0>         0.1422
     42 H15         6.6326    9.0133    0.1875 H         1 <0>         0.1210
     43 H16         8.5880    7.5594    0.2493 H         1 <0>         0.1340
     44 H17         8.3358    5.1169    0.3530 H         1 <0>         0.1391
     45 H18         6.1296    4.0892    0.3969 H         1 <0>         0.1438
     46 H19         0.3656    7.4033    0.2559 H         1 <0>         0.1228
     47 H20        -1.8395    6.3811    0.2981 H         1 <0>         0.1335
     48 H21        -3.2441    4.3501    0.3825 H         1 <0>         0.1311
     49 H22        -3.4134    1.9224    0.4759 H         1 <0>         0.1286
     50 H23        -1.3965    0.5199    0.5452 H         1 <0>         0.1289
     51 H24         0.8229    1.5227    0.5047 H         1 <0>         0.1314
     52 H25         2.2389    3.5533    0.4189 H         1 <0>         0.1420
     53 H26         2.1900   10.0396    0.2370 H         1 <0>         0.3897
     54 N2          4.5580   11.5930   -1.3377 N.4       1 <0>        -0.3919
     55 H27         3.8135   12.0509   -0.7988 H         1 <0>         0.4336
@<TRIPOS>BOND
     1    1    2 1
     2    1   29 1
     3    1   30 1
     4    1   31 1
     5    2   32 1
     6    2   33 1
     7    2   54 1
     8    3    4 1
     9    3   34 1
    10    3   35 1
    11    3   54 1
    12    4   36 1
    13    4   37 1
    14    4   38 1
    15    5    6 1
    16    5   39 1
    17    5   40 1
    18    5   54 1
    19    6    7 1
    20    6    8 1
    21    6   28 1
    22    8   13 ar
    23    8    9 ar
    24    9   10 ar
    25    9   41 1
    26   10   11 ar
    27   10   18 1
    28   11   12 ar
    29   12   17 ar
    30   12   13 ar
    31   13   14 ar
    32   14   15 ar
    33   14   42 1
    34   15   16 ar
    35   15   43 1
    36   16   17 ar
    37   16   44 1
    38   17   45 1
    39   18   27 ar
    40   18   19 ar
    41   19   20 ar
    42   19   46 1
    43   20   21 ar
    44   20   47 1
    45   21   26 ar
    46   21   22 ar
    47   22   23 ar
    48   22   48 1
    49   23   24 ar
    50   23   49 1
    51   24   25 ar
    52   24   50 1
    53   25   26 ar
    54   25   51 1
    55   26   27 ar
    56   27   52 1
    57   28   53 1
    58   54   55 1
@<TRIPOS>MOLECULE
ZINC05343236
   43    45     0     0     0
SMALL
USER_CHARGES
4-(2-hydroxyethylaminomethylene)-2-(m-tolyl)isoquinoline-1,3-dione
@<TRIPOS>ATOM
      1 C1         -0.9343   10.7640    6.0324 C.3       1 <0>        -0.1194
      2 C2         -1.9180    9.6504    5.7808 C.ar      1 <0>        -0.0708
      3 C3         -3.2694    9.8634    5.9836 C.ar      1 <0>        -0.0946
      4 C4         -4.1749    8.8441    5.7544 C.ar      1 <0>        -0.1006
      5 C5         -3.7321    7.6094    5.3214 C.ar      1 <0>        -0.0927
      6 C6         -2.3762    7.3925    5.1165 C.ar      1 <0>         0.0930
      7 C7         -1.4686    8.4166    5.3531 C.ar      1 <0>        -0.0933
      8 N1         -1.9240    6.1413    4.6774 N.am      1 <0>        -0.5009
      9 C8         -2.0010    5.0988    5.5204 C.2       1 <0>         0.5548
     10 O1         -2.4578    5.2640    6.6356 O.2       1 <0>        -0.4376
     11 C9         -1.5431    3.7627    5.1185 C.ar      1 <0>        -0.1144
     12 C10        -1.6196    2.6753    5.9894 C.ar      1 <0>        -0.0221
     13 C11        -1.1786    1.4372    5.5749 C.ar      1 <0>        -0.0966
     14 C12        -0.6596    1.2598    4.3006 C.ar      1 <0>        -0.0565
     15 C13        -0.5750    2.3220    3.4238 C.ar      1 <0>        -0.1547
     16 C14        -1.0196    3.5774    3.8220 C.ar      1 <0>        -0.0632
     17 C15        -0.9459    4.7493    2.9248 C.3       1 <0>        -0.1378
     18 C16        -0.4410    4.6348    1.6484 C.2       1 <0>         0.3784
     19 C17        -0.0166    3.2005   -0.3687 C.3       1 <0>         0.0660
     20 C18        -0.2858    1.7454   -0.7577 C.3       1 <0>         0.0464
     21 O2         -1.6958    1.5247   -0.8293 O.3       1 <0>        -0.5763
     22 C19        -1.4322    6.0374    3.4321 C.2       1 <0>         0.5699
     23 O3         -1.3898    7.0216    2.7168 O.2       1 <0>        -0.4548
     24 H1         -0.5992   10.7255    7.0689 H         1 <0>         0.0780
     25 H2         -0.0773   10.6486    5.3689 H         1 <0>         0.0692
     26 H3         -1.4151   11.7234    5.8414 H         1 <0>         0.0756
     27 H4         -3.6181   10.8279    6.3221 H         1 <0>         0.1360
     28 H5         -5.2296    9.0134    5.9143 H         1 <0>         0.1386
     29 H6         -4.4400    6.8136    5.1421 H         1 <0>         0.1275
     30 H7         -0.4128    8.2496    5.1989 H         1 <0>         0.1246
     31 H8         -2.0229    2.8031    6.9832 H         1 <0>         0.1602
     32 H9         -1.2380    0.5958    6.2493 H         1 <0>         0.1545
     33 H10        -0.3186    0.2825    3.9924 H         1 <0>         0.1511
     34 H11        -0.1703    2.1778    2.4328 H         1 <0>         0.1368
     35 H12         0.0154    5.4885    1.1697 H         1 <0>         0.2384
     36 H13        -0.0663    5.2088    3.0483 H         1 <0>         0.1766
     37 H14         1.0560    3.3926   -0.4004 H         1 <0>         0.1385
     38 H15        -0.5253    3.8637   -1.0681 H         1 <0>         0.1350
     39 H16         0.1481    1.0829   -0.0088 H         1 <0>         0.0672
     40 H17         0.1640    1.5399   -1.7289 H         1 <0>         0.0955
     41 H18        -1.9405    0.6210   -1.0715 H         1 <0>         0.4046
     42 N2         -0.5482    3.3913    1.0250 N.pl3     1 <0>        -0.5884
     43 H19        -0.9901    2.6063    1.5178 H         1 <0>         0.4581
@<TRIPOS>BOND
     1    1    2 1
     2    1   24 1
     3    1   25 1
     4    1   26 1
     5    2    7 ar
     6    2    3 ar
     7    3    4 ar
     8    3   27 1
     9    4    5 ar
    10    4   28 1
    11    5    6 ar
    12    5   29 1
    13    6    7 ar
    14    6    8 1
    15    7   30 1
    16    8   22 am
    17    8    9 am
    18    9   10 2
    19    9   11 1
    20   11   16 ar
    21   11   12 ar
    22   12   13 ar
    23   12   31 1
    24   13   14 ar
    25   13   32 1
    26   14   15 ar
    27   14   33 1
    28   15   16 ar
    29   15   34 1
    30   16   17 1
    31   17   22 1
    32   17   36 1
    33   17   18 1
    34   18   35 1
    35   18   42 2
    36   19   20 1
    37   19   37 1
    38   19   38 1
    39   19   42 1
    40   20   21 1
    41   20   39 1
    42   20   40 1
    43   21   41 1
    44   22   23 2
    45   42   43 1
@<TRIPOS>MOLECULE
ZINC02228546
   28    30     0     0     0
SMALL
USER_CHARGES
4-chloro-N-(3-oxo-2,6,7,9-tetrazabicyclo[4.3.0]nona-4,7,9-trien-5-yl)-benzamide
@<TRIPOS>ATOM
      1 C1         -3.7223    3.3927    0.2455 C.ar      1 <0>        -0.0699
      2 C2         -4.9200    4.0656    0.3643 C.ar      1 <0>        -0.1157
      3 C3         -4.9339    5.4462    0.4758 C.ar      1 <0>        -0.0045
      4 C4         -3.7461    6.1588    0.4750 C.ar      1 <0>        -0.1155
      5 C5         -2.5418    5.4968    0.3626 C.ar      1 <0>        -0.0377
      6 C6         -2.5212    4.1051    0.2494 C.ar      1 <0>        -0.1352
      7 C7         -1.2345    3.3899    0.1281 C.2       1 <0>         0.5741
      8 O1         -0.1908    4.0127    0.1267 O.2       1 <0>        -0.4868
      9 N1         -1.2177    2.0466    0.0190 N.am      1 <0>        -0.6736
     10 C8         -0.0166    1.3709    0.0096 C.2       1 <0>         0.4504
     11 C9          0.3053    0.5629   -1.0384 C.2       1 <0>        -0.2584
     12 C10         1.5321   -0.1259   -1.0319 C.2       1 <0>         0.5633
     13 O2          1.8298   -0.8516   -1.9653 O.2       1 <0>        -0.5017
     14 N2          2.3781    0.0185    0.0074 N.am      1 <0>        -0.6083
     15 H1          3.2503   -0.4707    0.0121 H         1 <0>         0.4458
     16 C11         2.0446    0.8380    1.0630 C.2       1 <0>         0.5180
     17 N3          0.8594    1.5053    1.0610 N.pl3     1 <0>        -0.3527
     18 N4          0.8174    2.2423    2.2527 N.2       1 <0>        -0.2923
     19 C12         1.9317    1.9963    2.8916 C.2       1 <0>         0.2560
     20 N5          2.6733    1.1504    2.1773 N.2       1 <0>        -0.5372
     21 Cl1        -6.4462    6.2868    0.6177 Cl        1 <0>        -0.0525
     22 H2         -3.7130    2.3167    0.1537 H         1 <0>         0.1365
     23 H3         -5.8494    3.5153    0.3662 H         1 <0>         0.1453
     24 H4         -3.7633    7.2351    0.5630 H         1 <0>         0.1463
     25 H5         -1.6163    6.0535    0.3624 H         1 <0>         0.1489
     26 H6         -2.0511    1.5555   -0.0530 H         1 <0>         0.4281
     27 H7         -0.3765    0.4513   -1.8685 H         1 <0>         0.1909
     28 H8          2.2077    2.4135    3.8487 H         1 <0>         0.2382
@<TRIPOS>BOND
     1    1    6 ar
     2    1    2 ar
     3    1   22 1
     4    2    3 ar
     5    2   23 1
     6    3    4 ar
     7    3   21 1
     8    4    5 ar
     9    4   24 1
    10    5    6 ar
    11    5   25 1
    12    6    7 1
    13    7    8 2
    14    7    9 am
    15    9   10 1
    16    9   26 1
    17   10   17 1
    18   10   11 2
    19   11   12 1
    20   11   27 1
    21   12   13 2
    22   12   14 am
    23   14   15 1
    24   14   16 1
    25   16   20 2
    26   16   17 1
    27   17   18 1
    28   18   19 2
    29   19   20 1
    30   19   28 1
@<TRIPOS>MOLECULE
ZINC02228778
   55    58     0     0     0
SMALL
USER_CHARGES
2-diethylamino-1-[2-(2-naphthyl)-4-quinolyl]-ethanol
@<TRIPOS>ATOM
      1 C1          7.0053   11.3096   -1.5429 C.3       1 <0>        -0.1912
      2 C2          5.8645   11.9318   -0.7352 C.3       1 <0>        -0.0175
      3 C3          4.5056   12.0745   -2.7341 C.3       1 <0>        -0.0127
      4 C4          4.3757   13.5990   -2.7241 C.3       1 <0>        -0.1881
      5 C5          4.3482   10.1304   -1.2995 C.3       1 <0>        -0.0450
      6 C6          4.1837    9.6933    0.1575 C.3       1 <0>         0.1329
      7 H1          5.0504   10.0170    0.7339 H         1 <0>         0.1364
      8 C7          4.0699    8.1920    0.2218 C.ar      1 <0>        -0.0806
      9 C8          2.8501    7.5838    0.2474 C.ar      1 <0>        -0.1376
     10 C9          2.7687    6.1837    0.3069 C.ar      1 <0>         0.2138
     11 N1          3.8520    5.4313    0.3445 N.ar      1 <0>        -0.4543
     12 C10         5.0726    5.9723    0.3163 C.ar      1 <0>         0.1409
     13 C11         5.2214    7.3809    0.2565 C.ar      1 <0>        -0.0925
     14 C12         6.5081    7.9414    0.2334 C.ar      1 <0>        -0.1253
     15 C13         7.5987    7.1266    0.2678 C.ar      1 <0>        -0.0928
     16 C14         7.4552    5.7418    0.3266 C.ar      1 <0>        -0.0978
     17 C15         6.2234    5.1641    0.3509 C.ar      1 <0>        -0.0796
     18 C16         1.4356    5.5361    0.3342 C.ar      1 <0>        -0.0747
     19 C17         0.2757    6.3279    0.3008 C.ar      1 <0>        -0.1027
     20 C18        -0.9570    5.7591    0.3247 C.ar      1 <0>        -0.1019
     21 C19        -1.0844    4.3594    0.3836 C.ar      1 <0>        -0.0384
     22 C20        -2.3486    3.7469    0.4088 C.ar      1 <0>        -0.1129
     23 C21        -2.4399    2.3897    0.4607 C.ar      1 <0>        -0.1015
     24 C22        -1.2962    1.5943    0.5002 C.ar      1 <0>        -0.1131
     25 C23        -0.0548    2.1515    0.4773 C.ar      1 <0>        -0.0993
     26 C24         0.0793    3.5502    0.4183 C.ar      1 <0>        -0.0612
     27 C25         1.3442    4.1576    0.3927 C.ar      1 <0>        -0.0415
     28 O1          3.0020   10.2844    0.7017 O.3       1 <0>        -0.5417
     29 H2          7.9498   11.4753   -1.0248 H         1 <0>         0.1092
     30 H3          6.8327   10.2387   -1.6501 H         1 <0>         0.0790
     31 H4          7.0461   11.7715   -2.5294 H         1 <0>         0.0845
     32 H5          5.9773   13.0159   -0.7228 H         1 <0>         0.1348
     33 H6          5.8930   11.5518    0.2860 H         1 <0>         0.1276
     34 H7          5.4113   11.7906   -3.2701 H         1 <0>         0.1337
     35 H8          3.6382   11.6392   -3.2303 H         1 <0>         0.1284
     36 H9          3.4843   13.8840   -2.1653 H         1 <0>         0.0811
     37 H10         5.2557   14.0355   -2.2517 H         1 <0>         0.0804
     38 H11         4.2946   13.9635   -3.7481 H         1 <0>         0.1071
     39 H12         5.1985    9.6108   -1.7409 H         1 <0>         0.1463
     40 H13         3.4437    9.8857   -1.8565 H         1 <0>         0.1380
     41 H14         1.9484    8.1778    0.2217 H         1 <0>         0.1422
     42 H15         6.6326    9.0133    0.1875 H         1 <0>         0.1210
     43 H16         8.5880    7.5594    0.2493 H         1 <0>         0.1340
     44 H17         8.3358    5.1169    0.3530 H         1 <0>         0.1391
     45 H18         6.1296    4.0892    0.3969 H         1 <0>         0.1438
     46 H19         0.3656    7.4033    0.2559 H         1 <0>         0.1228
     47 H20        -1.8395    6.3811    0.2981 H         1 <0>         0.1335
     48 H21        -3.2441    4.3501    0.3825 H         1 <0>         0.1311
     49 H22        -3.4134    1.9224    0.4759 H         1 <0>         0.1286
     50 H23        -1.3965    0.5199    0.5452 H         1 <0>         0.1289
     51 H24         0.8229    1.5227    0.5047 H         1 <0>         0.1314
     52 H25         2.2389    3.5533    0.4189 H         1 <0>         0.1420
     53 H26         2.1900   10.0396    0.2370 H         1 <0>         0.3897
     54 N2          4.5580   11.5930   -1.3377 N.4       1 <0>        -0.3919
     55 H27         3.8135   12.0509   -0.7988 H         1 <0>         0.4336
@<TRIPOS>BOND
     1    1    2 1
     2    1   29 1
     3    1   30 1
     4    1   31 1
     5    2   32 1
     6    2   33 1
     7    2   54 1
     8    3    4 1
     9    3   34 1
    10    3   35 1
    11    3   54 1
    12    4   36 1
    13    4   37 1
    14    4   38 1
    15    5    6 1
    16    5   39 1
    17    5   40 1
    18    5   54 1
    19    6    7 1
    20    6    8 1
    21    6   28 1
    22    8   13 ar
    23    8    9 ar
    24    9   10 ar
    25    9   41 1
    26   10   11 ar
    27   10   18 1
    28   11   12 ar
    29   12   17 ar
    30   12   13 ar
    31   13   14 ar
    32   14   15 ar
    33   14   42 1
    34   15   16 ar
    35   15   43 1
    36   16   17 ar
    37   16   44 1
    38   17   45 1
    39   18   27 ar
    40   18   19 ar
    41   19   20 ar
    42   19   46 1
    43   20   21 ar
    44   20   47 1
    45   21   26 ar
    46   21   22 ar
    47   22   23 ar
    48   22   48 1
    49   23   24 ar
    50   23   49 1
    51   24   25 ar
    52   24   50 1
    53   25   26 ar
    54   25   51 1
    55   26   27 ar
    56   27   52 1
    57   28   53 1
    58   54   55 1
@<TRIPOS>MOLECULE
ZINC02228896
   24    25     0     0     0
SMALL
USER_CHARGES
N-(3-oxo-2,6,7,9-tetrazabicyclo[4.3.0]nona-4,7,9-trien-5-yl)propanamide
@<TRIPOS>ATOM
      1 C1         -4.3551   -0.5795    2.0107 C.3       1 <0>        -0.1408
      2 C2         -4.1584    0.4436    0.8902 C.3       1 <0>        -0.1374
      3 C3         -2.7522    0.9830    0.9436 C.2       1 <0>         0.5208
      4 O1         -1.9833    0.5880    1.7939 O.2       1 <0>        -0.4942
      5 N1         -2.3493    1.9043    0.0463 N.am      1 <0>        -0.6797
      6 C4         -1.0344    2.3209    0.0284 C.2       1 <0>         0.4501
      7 C5         -0.7334    3.6406    0.1749 C.2       1 <0>        -0.2629
      8 C6          0.6126    4.0509    0.1614 C.2       1 <0>         0.5630
      9 O2          0.8931    5.2297    0.2966 O.2       1 <0>        -0.5035
     10 N2          1.5914    3.1384   -0.0008 N.am      1 <0>        -0.6088
     11 H1          2.5480    3.4295   -0.0105 H         1 <0>         0.4453
     12 C7          1.2773    1.8060   -0.1532 C.2       1 <0>         0.5174
     13 N3         -0.0225    1.4055   -0.1407 N.pl3     1 <0>        -0.3521
     14 N4         -0.0103    0.0147   -0.3163 N.2       1 <0>        -0.2930
     15 C8          1.2427   -0.3444   -0.4221 C.2       1 <0>         0.2552
     16 N5          2.0211    0.7327   -0.3243 N.2       1 <0>        -0.5383
     17 H2         -3.6468   -1.3982    1.8836 H         1 <0>         0.0645
     18 H3         -4.1864   -0.0995    2.9747 H         1 <0>         0.0635
     19 H4         -5.3721   -0.9696    1.9721 H         1 <0>         0.0686
     20 H5         -4.8666    1.2623    1.0173 H         1 <0>         0.1022
     21 H6         -4.3270   -0.0363   -0.0738 H         1 <0>         0.1029
     22 H7         -2.9839    2.2745   -0.5871 H         1 <0>         0.4296
     23 H8         -1.5220    4.3671    0.3041 H         1 <0>         0.1898
     24 H9          1.5920   -1.3560   -0.5669 H         1 <0>         0.2380
@<TRIPOS>BOND
     1    1    2 1
     2    1   17 1
     3    1   18 1
     4    1   19 1
     5    2    3 1
     6    2   20 1
     7    2   21 1
     8    3    4 2
     9    3    5 am
    10    5    6 1
    11    5   22 1
    12    6   13 1
    13    6    7 2
    14    7    8 1
    15    7   23 1
    16    8    9 2
    17    8   10 am
    18   10   11 1
    19   10   12 1
    20   12   16 2
    21   12   13 1
    22   13   14 1
    23   14   15 2
    24   15   16 1
    25   15   24 1
@<TRIPOS>MOLECULE
ZINC00411128
   46    48     0     0     0
SMALL
USER_CHARGES
N-[(2-hydroxy-6-methyl-3-quinolyl)methyl]-N-(3-pyridylmethyl)propanamide
@<TRIPOS>ATOM
      1 C1          1.5935    3.4783   -0.5315 C.3       1 <0>        -0.1386
      2 C2          1.7137    1.9760   -0.2682 C.3       1 <0>        -0.1493
      3 C3          0.3649    1.3263   -0.4404 C.2       1 <0>         0.5195
      4 O1         -0.6007    2.0009   -0.7295 O.2       1 <0>        -0.5238
      5 N1          0.2326   -0.0051   -0.2786 N.am      1 <0>        -0.6131
      6 C4          1.4163   -0.8357   -0.0440 C.3       1 <0>         0.1417
      7 C5          1.5902   -1.0559    1.4365 C.ar      1 <0>        -0.1665
      8 C6          2.4239   -0.2305    2.1760 C.ar      1 <0>        -0.0620
      9 C7          2.5498   -0.4675    3.5360 C.ar      1 <0>        -0.1678
     10 C8          1.8527   -1.5173    4.1041 C.ar      1 <0>         0.1068
     11 N2          1.0724   -2.2852    3.3689 N.ar      1 <0>        -0.4789
     12 C9          0.9253   -2.0863    2.0735 C.ar      1 <0>         0.1117
     13 C10        -1.0950   -0.6218   -0.3373 C.3       1 <0>         0.1548
     14 C11        -1.4602   -0.8923   -1.7742 C.ar      1 <0>        -0.2329
     15 C12        -2.2655   -0.0237   -2.4490 C.ar      1 <0>         0.0141
     16 C13        -2.5791   -0.3112   -3.7925 C.ar      1 <0>        -0.1322
     17 C14        -3.4036    0.5384   -4.5468 C.ar      1 <0>        -0.0820
     18 C15        -3.6938    0.2219   -5.8392 C.ar      1 <0>        -0.0957
     19 C16        -3.1782   -0.9319   -6.4253 C.ar      1 <0>        -0.0822
     20 C17        -2.3560   -1.7651   -5.7301 C.ar      1 <0>        -0.1031
     21 C18        -2.0491   -1.4818   -4.3882 C.ar      1 <0>         0.1694
     22 N3         -1.2681   -2.2989   -3.6728 N.ar      1 <0>        -0.4982
     23 C19        -0.9873   -2.0452   -2.4128 C.ar      1 <0>         0.3666
     24 O2         -0.1914   -2.9021   -1.7269 O.3       1 <0>        -0.4517
     25 C20        -4.5837    1.1320   -6.6458 C.3       1 <0>        -0.1162
     26 H1          1.2390    3.6416   -1.5492 H         1 <0>         0.0626
     27 H2          0.8870    3.9155    0.1740 H         1 <0>         0.0630
     28 H3          2.5692    3.9481   -0.4069 H         1 <0>         0.0637
     29 H4          2.0683    1.8127    0.7495 H         1 <0>         0.0947
     30 H5          2.4202    1.5387   -0.9737 H         1 <0>         0.0945
     31 H6          1.2900   -1.7972   -0.5420 H         1 <0>         0.0923
     32 H7          2.2975   -0.3332   -0.4425 H         1 <0>         0.1036
     33 H8          2.9593    0.5801    1.7042 H         1 <0>         0.1372
     34 H9          3.1875    0.1577    4.1433 H         1 <0>         0.1397
     35 H10         1.9485   -1.7112    5.1622 H         1 <0>         0.1595
     36 H11         0.2773   -2.7361    1.5040 H         1 <0>         0.1505
     37 H12        -1.0848   -1.5599    0.2178 H         1 <0>         0.0874
     38 H13        -1.8289    0.0530    0.1033 H         1 <0>         0.1062
     39 H14        -2.6530    0.8616   -1.9668 H         1 <0>         0.1490
     40 H15        -3.8089    1.4360   -4.1034 H         1 <0>         0.1308
     41 H16        -3.4228   -1.1613   -7.4519 H         1 <0>         0.1323
     42 H17        -1.9523   -2.6478   -6.2036 H         1 <0>         0.1380
     43 H18        -0.0746   -2.5713   -0.7904 H         1 <0>         0.3944
     44 H19        -3.9742    1.8789   -7.1546 H         1 <0>         0.0728
     45 H20        -5.1302    0.5449   -7.3840 H         1 <0>         0.0692
     46 H21        -5.2906    1.6304   -5.9825 H         1 <0>         0.0681
@<TRIPOS>BOND
     1    1    2 1
     2    1   26 1
     3    1   27 1
     4    1   28 1
     5    2    3 1
     6    2   29 1
     7    2   30 1
     8    3    4 2
     9    3    5 am
    10    5    6 1
    11    5   13 1
    12    6    7 1
    13    6   31 1
    14    6   32 1
    15    7   12 ar
    16    7    8 ar
    17    8    9 ar
    18    8   33 1
    19    9   10 ar
    20    9   34 1
    21   10   11 ar
    22   10   35 1
    23   11   12 ar
    24   12   36 1
    25   13   14 1
    26   13   37 1
    27   13   38 1
    28   14   23 ar
    29   14   15 ar
    30   15   39 1
    31   15   16 ar
    32   16   17 ar
    33   16   21 ar
    34   17   18 ar
    35   17   40 1
    36   18   19 ar
    37   18   25 1
    38   19   20 ar
    39   19   41 1
    40   20   21 ar
    41   20   42 1
    42   21   22 ar
    43   22   23 ar
    44   23   24 1
    45   24   43 1
    46   25   44 1
    47   25   45 1
    48   25   46 1
@<TRIPOS>MOLECULE
ZINC05343250
   28    30     0     0     0
SMALL
USER_CHARGES
trimethylBLAHone
@<TRIPOS>ATOM
      1 C1          0.0021   -0.0041    0.0020 C.3       1 <0>        -0.0737
      2 C2         -0.0184    1.5028    0.0103 C.2       1 <0>         0.0588
      3 C3         -1.1254    2.2754    0.0191 C.2       1 <0>        -0.0860
      4 N1         -0.7082    3.5813    0.0267 N.pl3     1 <0>        -0.3594
      5 C4         -1.3915    4.7659    0.0376 C.2       1 <0>         0.0629
      6 C5         -0.7399    5.9453    0.0373 C.2       1 <0>        -0.1084
      7 C6          0.6686    5.9736    0.0249 C.2       1 <0>         0.0844
      8 C7          1.3723    4.7817    0.0131 C.2       1 <0>         0.1091
      9 C8          0.6624    3.5625    0.0141 C.2       1 <0>         0.2558
     10 N2          1.0558    2.2967    0.0043 N.2       1 <0>        -0.4854
     11 N3          2.7245    5.1069    0.0021 N.am      1 <0>        -0.5104
     12 C9          2.8346    6.4497    0.0072 C.2       1 <0>         0.6675
     13 O1          3.8818    7.0700    0.0004 O.2       1 <0>        -0.5505
     14 N4          1.6045    6.9983    0.0209 N.am      1 <0>        -0.5215
     15 C10         1.3055    8.4324    0.0301 C.3       1 <0>         0.0938
     16 C11         3.8371    4.1540   -0.0128 C.3       1 <0>         0.0977
     17 H1          0.0164   -0.3729    1.0276 H         1 <0>         0.0758
     18 H2         -0.8875   -0.3767   -0.5057 H         1 <0>         0.0754
     19 H3          0.8922   -0.3525   -0.5218 H         1 <0>         0.0757
     20 H4         -2.1484    1.9293    0.0221 H         1 <0>         0.1881
     21 H5         -2.4714    4.7559    0.0468 H         1 <0>         0.1766
     22 H6         -1.2980    6.8699    0.0470 H         1 <0>         0.1609
     23 H7          2.2373    8.9979    0.0237 H         1 <0>         0.0984
     24 H8          0.7198    8.6871   -0.8531 H         1 <0>         0.0785
     25 H9          0.7369    8.6793    0.9267 H         1 <0>         0.0785
     26 H10         4.1035    3.9226   -1.0441 H         1 <0>         0.0731
     27 H11         4.6967    4.5911    0.4952 H         1 <0>         0.0889
     28 H12         3.5389    3.2392    0.4993 H         1 <0>         0.0951
@<TRIPOS>BOND
     1    1    2 1
     2    1   17 1
     3    1   18 1
     4    1   19 1
     5    2   10 1
     6    2    3 2
     7    3    4 1
     8    3   20 1
     9    4    9 1
    10    4    5 1
    11    5    6 2
    12    5   21 1
    13    6    7 1
    14    6   22 1
    15    7   14 1
    16    7    8 2
    17    8    9 1
    18    8   11 1
    19    9   10 2
    20   11   12 am
    21   11   16 1
    22   12   13 2
    23   12   14 am
    24   14   15 1
    25   15   23 1
    26   15   24 1
    27   15   25 1
    28   16   26 1
    29   16   27 1
    30   16   28 1
@<TRIPOS>MOLECULE
ZINC05343252
   46    48     0     0     0
SMALL
USER_CHARGES
2-(2-ethylphenyl)-4-(2-hydroxyethylaminomethylene)isoquinoline-1,3-dione
@<TRIPOS>ATOM
      1 C1          2.2791   -3.5277   -2.3927 C.3       1 <0>        -0.1504
      2 C2          0.8373   -3.4482   -1.8867 C.3       1 <0>        -0.0912
      3 C3          0.7518   -4.0655   -0.5146 C.ar      1 <0>        -0.0486
      4 C4          0.3843   -5.3896   -0.3737 C.ar      1 <0>        -0.1077
      5 C5          0.3000   -5.9550    0.8851 C.ar      1 <0>        -0.0866
      6 C6          0.5884   -5.1987    2.0066 C.ar      1 <0>        -0.1120
      7 C7          0.9615   -3.8760    1.8720 C.ar      1 <0>        -0.0885
      8 C8          1.0470   -3.3052    0.6090 C.ar      1 <0>         0.0895
      9 N1          1.4247   -1.9634    0.4691 N.am      1 <0>        -0.4978
     10 C9          0.4664   -1.0226    0.4752 C.2       1 <0>         0.5536
     11 O1         -0.6970   -1.3549    0.6010 O.2       1 <0>        -0.4365
     12 C10         0.7993    0.4004    0.3331 C.ar      1 <0>        -0.1125
     13 C11        -0.1915    1.3828    0.3388 C.ar      1 <0>        -0.0231
     14 C12         0.1614    2.7080    0.2023 C.ar      1 <0>        -0.0944
     15 C13         1.4913    3.0762    0.0596 C.ar      1 <0>        -0.0569
     16 C14         2.4866    2.1204    0.0515 C.ar      1 <0>        -0.1510
     17 C15         2.1502    0.7786    0.1878 C.ar      1 <0>        -0.0605
     18 C16         3.1763   -0.2850    0.1853 C.3       1 <0>        -0.1143
     19 C17         4.5126    0.0191    0.0466 C.2       1 <0>         0.3846
     20 C18         6.3797    1.6691    0.3590 C.3       1 <0>         0.0713
     21 C19         6.5097    3.0870    0.9189 C.3       1 <0>         0.0461
     22 O2          6.2117    3.0764    2.3165 O.3       1 <0>        -0.5787
     23 C20         2.7293   -1.6744    0.3344 C.2       1 <0>         0.5504
     24 O3          3.5492   -2.5744    0.3363 O.2       1 <0>        -0.4530
     25 H1          2.5893   -4.5713   -2.4437 H         1 <0>         0.0653
     26 H2          2.3410   -3.0813   -3.3852 H         1 <0>         0.0635
     27 H3          2.9342   -2.9870   -1.7096 H         1 <0>         0.0510
     28 H4          0.1823   -3.9889   -2.5698 H         1 <0>         0.0863
     29 H5          0.5272   -2.4046   -1.8357 H         1 <0>         0.0630
     30 H6          0.1581   -5.9826   -1.2476 H         1 <0>         0.1371
     31 H7          0.0082   -6.9891    0.9930 H         1 <0>         0.1366
     32 H8          0.5214   -5.6430    2.9888 H         1 <0>         0.1369
     33 H9          1.1869   -3.2861    2.7482 H         1 <0>         0.1247
     34 H10        -1.2296    1.1063    0.4497 H         1 <0>         0.1606
     35 H11        -0.6061    3.4678    0.2022 H         1 <0>         0.1551
     36 H12         1.7499    4.1195   -0.0466 H         1 <0>         0.1518
     37 H13         3.5202    2.4130   -0.0596 H         1 <0>         0.1396
     38 H14         5.1888   -0.7036   -0.3856 H         1 <0>         0.2415
     39 H15         3.4877   -0.4499    1.1211 H         1 <0>         0.1657
     40 H16         7.0124    0.9922    0.9332 H         1 <0>         0.1319
     41 H17         6.6923    1.6606   -0.6852 H         1 <0>         0.1405
     42 H18         7.5278    3.4455    0.7672 H         1 <0>         0.0965
     43 H19         5.8117    3.7466    0.4035 H         1 <0>         0.0686
     44 H20         6.2745    3.9442    2.7386 H         1 <0>         0.4050
     45 N2          4.9335    1.2759    0.4825 N.pl3     1 <0>        -0.6089
     46 H21         4.2558    1.9323    0.8877 H         1 <0>         0.4555
@<TRIPOS>BOND
     1    1    2 1
     2    1   25 1
     3    1   26 1
     4    1   27 1
     5    2    3 1
     6    2   28 1
     7    2   29 1
     8    3    8 ar
     9    3    4 ar
    10    4    5 ar
    11    4   30 1
    12    5    6 ar
    13    5   31 1
    14    6    7 ar
    15    6   32 1
    16    7    8 ar
    17    7   33 1
    18    8    9 1
    19    9   23 am
    20    9   10 am
    21   10   11 2
    22   10   12 1
    23   12   17 ar
    24   12   13 ar
    25   13   14 ar
    26   13   34 1
    27   14   15 ar
    28   14   35 1
    29   15   16 ar
    30   15   36 1
    31   16   17 ar
    32   16   37 1
    33   17   18 1
    34   18   23 1
    35   18   39 1
    36   18   19 1
    37   19   38 1
    38   19   45 2
    39   20   21 1
    40   20   40 1
    41   20   41 1
    42   20   45 1
    43   21   22 1
    44   21   42 1
    45   21   43 1
    46   22   44 1
    47   23   24 2
    48   45   46 1
@<TRIPOS>MOLECULE
ZINC02229532
   55    58     0     0     0
SMALL
USER_CHARGES
2-diethylamino-1-[2-(2-naphthyl)-4-quinolyl]-ethanol
@<TRIPOS>ATOM
      1 C1          7.0053   11.3096   -1.5429 C.3       1 <0>        -0.1912
      2 C2          5.8645   11.9318   -0.7352 C.3       1 <0>        -0.0175
      3 C3          4.5056   12.0745   -2.7341 C.3       1 <0>        -0.0127
      4 C4          4.3757   13.5990   -2.7241 C.3       1 <0>        -0.1881
      5 C5          4.3482   10.1304   -1.2995 C.3       1 <0>        -0.0450
      6 C6          4.1837    9.6933    0.1575 C.3       1 <0>         0.1329
      7 H1          5.0504   10.0170    0.7339 H         1 <0>         0.1364
      8 C7          4.0699    8.1920    0.2218 C.ar      1 <0>        -0.0806
      9 C8          2.8501    7.5838    0.2474 C.ar      1 <0>        -0.1376
     10 C9          2.7687    6.1837    0.3069 C.ar      1 <0>         0.2138
     11 N1          3.8520    5.4313    0.3445 N.ar      1 <0>        -0.4543
     12 C10         5.0726    5.9723    0.3163 C.ar      1 <0>         0.1409
     13 C11         5.2214    7.3809    0.2565 C.ar      1 <0>        -0.0925
     14 C12         6.5081    7.9414    0.2334 C.ar      1 <0>        -0.1253
     15 C13         7.5987    7.1266    0.2678 C.ar      1 <0>        -0.0928
     16 C14         7.4552    5.7418    0.3266 C.ar      1 <0>        -0.0978
     17 C15         6.2234    5.1641    0.3509 C.ar      1 <0>        -0.0796
     18 C16         1.4356    5.5361    0.3342 C.ar      1 <0>        -0.0747
     19 C17         0.2757    6.3279    0.3008 C.ar      1 <0>        -0.1027
     20 C18        -0.9570    5.7591    0.3247 C.ar      1 <0>        -0.1019
     21 C19        -1.0844    4.3594    0.3836 C.ar      1 <0>        -0.0384
     22 C20        -2.3486    3.7469    0.4088 C.ar      1 <0>        -0.1129
     23 C21        -2.4399    2.3897    0.4607 C.ar      1 <0>        -0.1015
     24 C22        -1.2962    1.5943    0.5002 C.ar      1 <0>        -0.1131
     25 C23        -0.0548    2.1515    0.4773 C.ar      1 <0>        -0.0993
     26 C24         0.0793    3.5502    0.4183 C.ar      1 <0>        -0.0612
     27 C25         1.3442    4.1576    0.3927 C.ar      1 <0>        -0.0415
     28 O1          3.0020   10.2844    0.7017 O.3       1 <0>        -0.5417
     29 H2          7.9498   11.4753   -1.0248 H         1 <0>         0.1092
     30 H3          6.8327   10.2387   -1.6501 H         1 <0>         0.0790
     31 H4          7.0461   11.7715   -2.5294 H         1 <0>         0.0845
     32 H5          5.9773   13.0159   -0.7228 H         1 <0>         0.1348
     33 H6          5.8930   11.5518    0.2860 H         1 <0>         0.1276
     34 H7          5.4113   11.7906   -3.2701 H         1 <0>         0.1337
     35 H8          3.6382   11.6392   -3.2303 H         1 <0>         0.1284
     36 H9          3.4843   13.8840   -2.1653 H         1 <0>         0.0811
     37 H10         5.2557   14.0355   -2.2517 H         1 <0>         0.0804
     38 H11         4.2946   13.9635   -3.7481 H         1 <0>         0.1071
     39 H12         5.1985    9.6108   -1.7409 H         1 <0>         0.1463
     40 H13         3.4437    9.8857   -1.8565 H         1 <0>         0.1380
     41 H14         1.9484    8.1778    0.2217 H         1 <0>         0.1422
     42 H15         6.6326    9.0133    0.1875 H         1 <0>         0.1210
     43 H16         8.5880    7.5594    0.2493 H         1 <0>         0.1340
     44 H17         8.3358    5.1169    0.3530 H         1 <0>         0.1391
     45 H18         6.1296    4.0892    0.3969 H         1 <0>         0.1438
     46 H19         0.3656    7.4033    0.2559 H         1 <0>         0.1228
     47 H20        -1.8395    6.3811    0.2981 H         1 <0>         0.1335
     48 H21        -3.2441    4.3501    0.3825 H         1 <0>         0.1311
     49 H22        -3.4134    1.9224    0.4759 H         1 <0>         0.1286
     50 H23        -1.3965    0.5199    0.5452 H         1 <0>         0.1289
     51 H24         0.8229    1.5227    0.5047 H         1 <0>         0.1314
     52 H25         2.2389    3.5533    0.4189 H         1 <0>         0.1420
     53 H26         2.1900   10.0396    0.2370 H         1 <0>         0.3897
     54 N2          4.5580   11.5930   -1.3377 N.4       1 <0>        -0.3919
     55 H27         3.8135   12.0509   -0.7988 H         1 <0>         0.4336
@<TRIPOS>BOND
     1    1    2 1
     2    1   29 1
     3    1   30 1
     4    1   31 1
     5    2   32 1
     6    2   33 1
     7    2   54 1
     8    3    4 1
     9    3   34 1
    10    3   35 1
    11    3   54 1
    12    4   36 1
    13    4   37 1
    14    4   38 1
    15    5    6 1
    16    5   39 1
    17    5   40 1
    18    5   54 1
    19    6    7 1
    20    6    8 1
    21    6   28 1
    22    8   13 ar
    23    8    9 ar
    24    9   10 ar
    25    9   41 1
    26   10   11 ar
    27   10   18 1
    28   11   12 ar
    29   12   17 ar
    30   12   13 ar
    31   13   14 ar
    32   14   15 ar
    33   14   42 1
    34   15   16 ar
    35   15   43 1
    36   16   17 ar
    37   16   44 1
    38   17   45 1
    39   18   27 ar
    40   18   19 ar
    41   19   20 ar
    42   19   46 1
    43   20   21 ar
    44   20   47 1
    45   21   26 ar
    46   21   22 ar
    47   22   23 ar
    48   22   48 1
    49   23   24 ar
    50   23   49 1
    51   24   25 ar
    52   24   50 1
    53   25   26 ar
    54   25   51 1
    55   26   27 ar
    56   27   52 1
    57   28   53 1
    58   54   55 1
@<TRIPOS>MOLECULE
ZINC02229718
   55    58     0     0     0
SMALL
USER_CHARGES
2-diethylamino-1-[2-(2-naphthyl)-4-quinolyl]-ethanol
@<TRIPOS>ATOM
      1 C1          7.0053   11.3096   -1.5429 C.3       1 <0>        -0.1912
      2 C2          5.8645   11.9318   -0.7352 C.3       1 <0>        -0.0175
      3 C3          4.5056   12.0745   -2.7341 C.3       1 <0>        -0.0127
      4 C4          4.3757   13.5990   -2.7241 C.3       1 <0>        -0.1881
      5 C5          4.3482   10.1304   -1.2995 C.3       1 <0>        -0.0450
      6 C6          4.1837    9.6933    0.1575 C.3       1 <0>         0.1329
      7 H1          5.0504   10.0170    0.7339 H         1 <0>         0.1364
      8 C7          4.0699    8.1920    0.2218 C.ar      1 <0>        -0.0806
      9 C8          2.8501    7.5838    0.2474 C.ar      1 <0>        -0.1376
     10 C9          2.7687    6.1837    0.3069 C.ar      1 <0>         0.2138
     11 N1          3.8520    5.4313    0.3445 N.ar      1 <0>        -0.4543
     12 C10         5.0726    5.9723    0.3163 C.ar      1 <0>         0.1409
     13 C11         5.2214    7.3809    0.2565 C.ar      1 <0>        -0.0925
     14 C12         6.5081    7.9414    0.2334 C.ar      1 <0>        -0.1253
     15 C13         7.5987    7.1266    0.2678 C.ar      1 <0>        -0.0928
     16 C14         7.4552    5.7418    0.3266 C.ar      1 <0>        -0.0978
     17 C15         6.2234    5.1641    0.3509 C.ar      1 <0>        -0.0796
     18 C16         1.4356    5.5361    0.3342 C.ar      1 <0>        -0.0747
     19 C17         0.2757    6.3279    0.3008 C.ar      1 <0>        -0.1027
     20 C18        -0.9570    5.7591    0.3247 C.ar      1 <0>        -0.1019
     21 C19        -1.0844    4.3594    0.3836 C.ar      1 <0>        -0.0384
     22 C20        -2.3486    3.7469    0.4088 C.ar      1 <0>        -0.1129
     23 C21        -2.4399    2.3897    0.4607 C.ar      1 <0>        -0.1015
     24 C22        -1.2962    1.5943    0.5002 C.ar      1 <0>        -0.1131
     25 C23        -0.0548    2.1515    0.4773 C.ar      1 <0>        -0.0993
     26 C24         0.0793    3.5502    0.4183 C.ar      1 <0>        -0.0612
     27 C25         1.3442    4.1576    0.3927 C.ar      1 <0>        -0.0415
     28 O1          3.0020   10.2844    0.7017 O.3       1 <0>        -0.5417
     29 H2          7.9498   11.4753   -1.0248 H         1 <0>         0.1092
     30 H3          6.8327   10.2387   -1.6501 H         1 <0>         0.0790
     31 H4          7.0461   11.7715   -2.5294 H         1 <0>         0.0845
     32 H5          5.9773   13.0159   -0.7228 H         1 <0>         0.1348
     33 H6          5.8930   11.5518    0.2860 H         1 <0>         0.1276
     34 H7          5.4113   11.7906   -3.2701 H         1 <0>         0.1337
     35 H8          3.6382   11.6392   -3.2303 H         1 <0>         0.1284
     36 H9          3.4843   13.8840   -2.1653 H         1 <0>         0.0811
     37 H10         5.2557   14.0355   -2.2517 H         1 <0>         0.0804
     38 H11         4.2946   13.9635   -3.7481 H         1 <0>         0.1071
     39 H12         5.1985    9.6108   -1.7409 H         1 <0>         0.1463
     40 H13         3.4437    9.8857   -1.8565 H         1 <0>         0.1380
     41 H14         1.9484    8.1778    0.2217 H         1 <0>         0.1422
     42 H15         6.6326    9.0133    0.1875 H         1 <0>         0.1210
     43 H16         8.5880    7.5594    0.2493 H         1 <0>         0.1340
     44 H17         8.3358    5.1169    0.3530 H         1 <0>         0.1391
     45 H18         6.1296    4.0892    0.3969 H         1 <0>         0.1438
     46 H19         0.3656    7.4033    0.2559 H         1 <0>         0.1228
     47 H20        -1.8395    6.3811    0.2981 H         1 <0>         0.1335
     48 H21        -3.2441    4.3501    0.3825 H         1 <0>         0.1311
     49 H22        -3.4134    1.9224    0.4759 H         1 <0>         0.1286
     50 H23        -1.3965    0.5199    0.5452 H         1 <0>         0.1289
     51 H24         0.8229    1.5227    0.5047 H         1 <0>         0.1314
     52 H25         2.2389    3.5533    0.4189 H         1 <0>         0.1420
     53 H26         2.1900   10.0396    0.2370 H         1 <0>         0.3897
     54 N2          4.5580   11.5930   -1.3377 N.4       1 <0>        -0.3919
     55 H27         3.8135   12.0509   -0.7988 H         1 <0>         0.4336
@<TRIPOS>BOND
     1    1    2 1
     2    1   29 1
     3    1   30 1
     4    1   31 1
     5    2   32 1
     6    2   33 1
     7    2   54 1
     8    3    4 1
     9    3   34 1
    10    3   35 1
    11    3   54 1
    12    4   36 1
    13    4   37 1
    14    4   38 1
    15    5    6 1
    16    5   39 1
    17    5   40 1
    18    5   54 1
    19    6    7 1
    20    6    8 1
    21    6   28 1
    22    8   13 ar
    23    8    9 ar
    24    9   10 ar
    25    9   41 1
    26   10   11 ar
    27   10   18 1
    28   11   12 ar
    29   12   17 ar
    30   12   13 ar
    31   13   14 ar
    32   14   15 ar
    33   14   42 1
    34   15   16 ar
    35   15   43 1
    36   16   17 ar
    37   16   44 1
    38   17   45 1
    39   18   27 ar
    40   18   19 ar
    41   19   20 ar
    42   19   46 1
    43   20   21 ar
    44   20   47 1
    45   21   26 ar
    46   21   22 ar
    47   22   23 ar
    48   22   48 1
    49   23   24 ar
    50   23   49 1
    51   24   25 ar
    52   24   50 1
    53   25   26 ar
    54   25   51 1
    55   26   27 ar
    56   27   52 1
    57   28   53 1
    58   54   55 1
@<TRIPOS>MOLECULE
ZINC02230429
   36    39     0     0     0
SMALL
USER_CHARGES
(4-fluorophenyl)methylaminoBLAHone
@<TRIPOS>ATOM
      1 C1          8.4009    6.8895    2.0989 C.ar      1 <0>        -0.0664
      2 C2          9.6305    7.5156    2.1761 C.ar      1 <0>        -0.1564
      3 C3         10.1418    8.1744    1.0708 C.ar      1 <0>         0.1104
      4 C4          9.4228    8.2006   -0.1122 C.ar      1 <0>        -0.1564
      5 C5          8.1958    7.5693   -0.1885 C.ar      1 <0>        -0.0665
      6 C6          7.6863    6.9118    0.9157 C.ar      1 <0>        -0.1248
      7 C7          6.3480    6.2242    0.8313 C.3       1 <0>         0.1849
      8 N1          6.5378    4.8375    0.3987 N.pl3     1 <0>        -0.6891
      9 C8          5.4365    3.9981    0.2473 C.2       1 <0>         0.5127
     10 N2          4.1641    4.3437    0.4656 N.2       1 <0>        -0.5650
     11 C9          3.3761    3.3146    0.2288 C.2       1 <0>         0.5281
     12 N3          2.0135    3.1543    0.3045 N.pl3     1 <0>        -0.5764
     13 H1          1.4385    3.9227    0.5855 H         1 <0>         0.4459
     14 C10         1.4378    1.9528   -0.0012 C.2       1 <0>         0.1892
     15 C11         2.2138    0.9152   -0.3843 C.2       1 <0>        -0.2649
     16 C12         3.6151    1.0854   -0.4622 C.2       1 <0>         0.5743
     17 O1          4.3244    0.1569   -0.8076 O.2       1 <0>        -0.4833
     18 N4          4.1633    2.2731   -0.1550 N.am      1 <0>        -0.3675
     19 N5          5.4841    2.7419   -0.1333 N.2       1 <0>        -0.3367
     20 C13         1.3600   -0.3013   -0.6703 C.3       1 <0>        -0.0453
     21 C14         0.0021   -0.0041    0.0020 C.3       1 <0>        -0.1152
     22 C15        -0.0189    1.5398    0.0105 C.3       1 <0>        -0.0769
     23 F1         11.3416    8.7909    1.1464 F         1 <0>        -0.1366
     24 H2          7.9999    6.3791    2.9621 H         1 <0>         0.1363
     25 H3         10.1905    7.4945    3.0993 H         1 <0>         0.1390
     26 H4          9.8209    8.7139   -0.9750 H         1 <0>         0.1390
     27 H5          7.6350    7.5893   -1.1112 H         1 <0>         0.1363
     28 H6          5.7162    6.7458    0.1124 H         1 <0>         0.0776
     29 H7          5.8705    6.2370    1.8111 H         1 <0>         0.0776
     30 H8          7.4305    4.5038    0.2177 H         1 <0>         0.4204
     31 H9          1.8118   -1.1921   -0.2340 H         1 <0>         0.0852
     32 H10         1.2306   -0.4289   -1.7451 H         1 <0>         0.0860
     33 H11        -0.0247   -0.3996    1.0174 H         1 <0>         0.0842
     34 H12        -0.8215   -0.4015   -0.5911 H         1 <0>         0.0945
     35 H13        -0.5263    1.9165   -0.8776 H         1 <0>         0.1082
     36 H14        -0.5093    1.9069    0.9121 H         1 <0>         0.0974
@<TRIPOS>BOND
     1    1    6 ar
     2    1    2 ar
     3    1   24 1
     4    2    3 ar
     5    2   25 1
     6    3    4 ar
     7    3   23 1
     8    4    5 ar
     9    4   26 1
    10    5    6 ar
    11    5   27 1
    12    6    7 1
    13    7    8 1
    14    7   28 1
    15    7   29 1
    16    8    9 1
    17    8   30 1
    18    9   19 2
    19    9   10 1
    20   10   11 2
    21   11   18 1
    22   11   12 1
    23   12   13 1
    24   12   14 1
    25   14   22 1
    26   14   15 2
    27   15   16 1
    28   15   20 1
    29   16   17 2
    30   16   18 am
    31   18   19 1
    32   20   21 1
    33   20   31 1
    34   20   32 1
    35   21   22 1
    36   21   33 1
    37   21   34 1
    38   22   35 1
    39   22   36 1
@<TRIPOS>MOLECULE
ZINC02230645
   55    58     0     0     0
SMALL
USER_CHARGES
2-diethylamino-1-[2-(2-naphthyl)-4-quinolyl]-ethanol
@<TRIPOS>ATOM
      1 C1          7.0053   11.3096   -1.5429 C.3       1 <0>        -0.1912
      2 C2          5.8645   11.9318   -0.7352 C.3       1 <0>        -0.0175
      3 C3          4.5056   12.0745   -2.7341 C.3       1 <0>        -0.0127
      4 C4          4.3757   13.5990   -2.7241 C.3       1 <0>        -0.1881
      5 C5          4.3482   10.1304   -1.2995 C.3       1 <0>        -0.0450
      6 C6          4.1837    9.6933    0.1575 C.3       1 <0>         0.1329
      7 H1          5.0504   10.0170    0.7339 H         1 <0>         0.1364
      8 C7          4.0699    8.1920    0.2218 C.ar      1 <0>        -0.0806
      9 C8          2.8501    7.5838    0.2474 C.ar      1 <0>        -0.1376
     10 C9          2.7687    6.1837    0.3069 C.ar      1 <0>         0.2138
     11 N1          3.8520    5.4313    0.3445 N.ar      1 <0>        -0.4543
     12 C10         5.0726    5.9723    0.3163 C.ar      1 <0>         0.1409
     13 C11         5.2214    7.3809    0.2565 C.ar      1 <0>        -0.0925
     14 C12         6.5081    7.9414    0.2334 C.ar      1 <0>        -0.1253
     15 C13         7.5987    7.1266    0.2678 C.ar      1 <0>        -0.0928
     16 C14         7.4552    5.7418    0.3266 C.ar      1 <0>        -0.0978
     17 C15         6.2234    5.1641    0.3509 C.ar      1 <0>        -0.0796
     18 C16         1.4356    5.5361    0.3342 C.ar      1 <0>        -0.0747
     19 C17         0.2757    6.3279    0.3008 C.ar      1 <0>        -0.1027
     20 C18        -0.9570    5.7591    0.3247 C.ar      1 <0>        -0.1019
     21 C19        -1.0844    4.3594    0.3836 C.ar      1 <0>        -0.0384
     22 C20        -2.3486    3.7469    0.4088 C.ar      1 <0>        -0.1129
     23 C21        -2.4399    2.3897    0.4607 C.ar      1 <0>        -0.1015
     24 C22        -1.2962    1.5943    0.5002 C.ar      1 <0>        -0.1131
     25 C23        -0.0548    2.1515    0.4773 C.ar      1 <0>        -0.0993
     26 C24         0.0793    3.5502    0.4183 C.ar      1 <0>        -0.0612
     27 C25         1.3442    4.1576    0.3927 C.ar      1 <0>        -0.0415
     28 O1          3.0020   10.2844    0.7017 O.3       1 <0>        -0.5417
     29 H2          7.9498   11.4753   -1.0248 H         1 <0>         0.1092
     30 H3          6.8327   10.2387   -1.6501 H         1 <0>         0.0790
     31 H4          7.0461   11.7715   -2.5294 H         1 <0>         0.0845
     32 H5          5.9773   13.0159   -0.7228 H         1 <0>         0.1348
     33 H6          5.8930   11.5518    0.2860 H         1 <0>         0.1276
     34 H7          5.4113   11.7906   -3.2701 H         1 <0>         0.1337
     35 H8          3.6382   11.6392   -3.2303 H         1 <0>         0.1284
     36 H9          3.4843   13.8840   -2.1653 H         1 <0>         0.0811
     37 H10         5.2557   14.0355   -2.2517 H         1 <0>         0.0804
     38 H11         4.2946   13.9635   -3.7481 H         1 <0>         0.1071
     39 H12         5.1985    9.6108   -1.7409 H         1 <0>         0.1463
     40 H13         3.4437    9.8857   -1.8565 H         1 <0>         0.1380
     41 H14         1.9484    8.1778    0.2217 H         1 <0>         0.1422
     42 H15         6.6326    9.0133    0.1875 H         1 <0>         0.1210
     43 H16         8.5880    7.5594    0.2493 H         1 <0>         0.1340
     44 H17         8.3358    5.1169    0.3530 H         1 <0>         0.1391
     45 H18         6.1296    4.0892    0.3969 H         1 <0>         0.1438
     46 H19         0.3656    7.4033    0.2559 H         1 <0>         0.1228
     47 H20        -1.8395    6.3811    0.2981 H         1 <0>         0.1335
     48 H21        -3.2441    4.3501    0.3825 H         1 <0>         0.1311
     49 H22        -3.4134    1.9224    0.4759 H         1 <0>         0.1286
     50 H23        -1.3965    0.5199    0.5452 H         1 <0>         0.1289
     51 H24         0.8229    1.5227    0.5047 H         1 <0>         0.1314
     52 H25         2.2389    3.5533    0.4189 H         1 <0>         0.1420
     53 H26         2.1900   10.0396    0.2370 H         1 <0>         0.3897
     54 N2          4.5580   11.5930   -1.3377 N.4       1 <0>        -0.3919
     55 H27         3.8135   12.0509   -0.7988 H         1 <0>         0.4336
@<TRIPOS>BOND
     1    1    2 1
     2    1   29 1
     3    1   30 1
     4    1   31 1
     5    2   32 1
     6    2   33 1
     7    2   54 1
     8    3    4 1
     9    3   34 1
    10    3   35 1
    11    3   54 1
    12    4   36 1
    13    4   37 1
    14    4   38 1
    15    5    6 1
    16    5   39 1
    17    5   40 1
    18    5   54 1
    19    6    7 1
    20    6    8 1
    21    6   28 1
    22    8   13 ar
    23    8    9 ar
    24    9   10 ar
    25    9   41 1
    26   10   11 ar
    27   10   18 1
    28   11   12 ar
    29   12   17 ar
    30   12   13 ar
    31   13   14 ar
    32   14   15 ar
    33   14   42 1
    34   15   16 ar
    35   15   43 1
    36   16   17 ar
    37   16   44 1
    38   17   45 1
    39   18   27 ar
    40   18   19 ar
    41   19   20 ar
    42   19   46 1
    43   20   21 ar
    44   20   47 1
    45   21   26 ar
    46   21   22 ar
    47   22   23 ar
    48   22   48 1
    49   23   24 ar
    50   23   49 1
    51   24   25 ar
    52   24   50 1
    53   25   26 ar
    54   25   51 1
    55   26   27 ar
    56   27   52 1
    57   28   53 1
    58   54   55 1
@<TRIPOS>MOLECULE
ZINC05343293
   36    39     0     0     0
SMALL
USER_CHARGES
amino-dimethyl-oxo-BLAHcarbonitrile
@<TRIPOS>ATOM
      1 C1          5.8903   -2.3289   -3.1672 C.3       1 <0>        -0.1103
      2 C2          4.6126   -1.5299   -3.1723 C.ar      1 <0>        -0.1045
      3 C3          4.0004   -1.1546   -4.3583 C.ar      1 <0>        -0.0837
      4 C4          2.8307   -0.4233   -4.3765 C.ar      1 <0>        -0.1398
      5 C5          2.2071   -0.0243   -3.1987 C.ar      1 <0>        -0.0501
      6 C6          2.8095   -0.3933   -2.0157 C.ar      1 <0>        -0.1251
      7 C7          3.9968   -1.1366   -1.9835 C.ar      1 <0>         0.1489
      8 N1          4.3833   -1.3690   -0.6753 N.am      1 <0>        -0.6607
      9 C8          3.5240   -0.8226    0.2108 C.2       1 <0>         0.5393
     10 O1          3.6102   -0.8655    1.4199 O.2       1 <0>        -0.4778
     11 C9          2.4332   -0.1466   -0.5902 C.3       1 <0>         0.1254
     12 C10         2.3918    1.3236   -0.2805 C.2       1 <0>        -0.2540
     13 C11         3.3866    2.2206   -0.2130 C.2       1 <0>         0.1257
     14 N2          2.8401    3.4182    0.0998 N.2       1 <0>        -0.2877
     15 H1          0.7904    3.9592    0.4521 H         1 <0>         0.4574
     16 N3          1.4529    3.2446    0.2274 N.pl3     1 <0>        -0.3979
     17 C12         1.1786    1.9929    0.0026 C.2       1 <0>         0.2848
     18 O2         -0.0160    1.3432    0.0113 O.3       1 <0>        -0.2300
     19 C13         0.0025   -0.0045    0.0042 C.2       1 <0>         0.4572
     20 C14         1.0962   -0.7520   -0.2640 C.2       1 <0>        -0.2472
     21 C15         0.9765   -2.1787   -0.2367 C.1       1 <0>         0.2647
     22 N4          0.8814   -3.3105   -0.2151 N.1       1 <0>        -0.4251
     23 N5         -1.1685   -0.6621    0.2880 N.pl3     1 <0>        -0.8254
     24 C16         4.8499    1.9443   -0.4439 C.3       1 <0>        -0.0825
     25 H2          5.6535   -3.3929   -3.1600 H         1 <0>         0.0723
     26 H3          6.4707   -2.0920   -4.0589 H         1 <0>         0.0746
     27 H4          6.4710   -2.0800   -2.2790 H         1 <0>         0.0628
     28 H5          4.4523   -1.4438   -5.2957 H         1 <0>         0.1272
     29 H6          2.3903   -0.1541   -5.3252 H         1 <0>         0.1264
     30 H7          1.2914    0.5483   -3.2111 H         1 <0>         0.1309
     31 H8          5.1779   -1.8656   -0.4246 H         1 <0>         0.4155
     32 H9         -1.9730   -0.1571    0.4848 H         1 <0>         0.4141
     33 H10        -1.1915   -1.6319    0.2917 H         1 <0>         0.4294
     34 H11         5.0842    2.0852   -1.4991 H         1 <0>         0.0885
     35 H12         5.4483    2.6300    0.1559 H         1 <0>         0.0836
     36 H13         5.0758    0.9175   -0.1557 H         1 <0>         0.0730
@<TRIPOS>BOND
     1    1    2 1
     2    1   25 1
     3    1   26 1
     4    1   27 1
     5    2    7 ar
     6    2    3 ar
     7    3    4 ar
     8    3   28 1
     9    4    5 ar
    10    4   29 1
    11    5    6 ar
    12    5   30 1
    13    6   11 1
    14    6    7 ar
    15    7    8 1
    16    8    9 am
    17    8   31 1
    18    9   10 2
    19    9   11 1
    20   11   20 1
    21   11   12 1
    22   12   13 1
    23   12   17 2
    24   13   24 1
    25   13   14 2
    26   14   16 1
    27   15   16 1
    28   16   17 1
    29   17   18 1
    30   18   19 1
    31   19   20 2
    32   19   23 1
    33   20   21 1
    34   21   22 3
    35   23   32 1
    36   23   33 1
    37   24   34 1
    38   24   35 1
    39   24   36 1
@<TRIPOS>MOLECULE
ZINC05343294
   36    39     0     0     0
SMALL
USER_CHARGES
amino-dimethyl-oxo-BLAHcarbonitrile
@<TRIPOS>ATOM
      1 C1         -1.2733   -0.8062    0.0106 C.3       1 <0>        -0.1102
      2 C2          0.0023   -0.0038    0.0026 C.ar      1 <0>        -0.1046
      3 C3          1.2436   -0.6211   -0.0130 C.ar      1 <0>        -0.0837
      4 C4          2.4186    0.1019   -0.0214 C.ar      1 <0>        -0.1398
      5 C5          2.4134    1.4930   -0.0133 C.ar      1 <0>        -0.0501
      6 C6          1.1835    2.1139    0.0025 C.ar      1 <0>        -0.1250
      7 C7         -0.0168    1.3914    0.0100 C.ar      1 <0>         0.1489
      8 N1         -1.0980    2.2550    0.0189 N.am      1 <0>        -0.6607
      9 C8         -0.7124    3.5486    0.0289 C.2       1 <0>         0.5393
     10 O1         -1.4405    4.5185    0.0411 O.2       1 <0>        -0.4778
     11 C9          0.8004    3.5586    0.0171 C.3       1 <0>         0.1254
     12 C10         1.3079    4.2737   -1.2035 C.2       1 <0>        -0.2541
     13 C11         0.9490    4.1484   -2.4898 C.2       1 <0>         0.1257
     14 N2          1.6977    5.0137   -3.2119 N.2       1 <0>        -0.2877
     15 H1          3.2173    6.3959   -2.5811 H         1 <0>         0.4574
     16 N3          2.5501    5.6950   -2.3289 N.pl3     1 <0>        -0.3979
     17 C12         2.3216    5.2566   -1.1254 C.2       1 <0>         0.2849
     18 O2          2.8923    5.6086    0.0575 O.3       1 <0>        -0.2300
     19 C13         2.2961    5.1911    1.1917 C.2       1 <0>         0.4574
     20 C14         1.3258    4.2515    1.2437 C.2       1 <0>        -0.2476
     21 C15         0.7763    3.9015    2.5188 C.1       1 <0>         0.2647
     22 N4          0.3403    3.6237    3.5304 N.1       1 <0>        -0.4251
     23 N5          2.7018    5.7580    2.3742 N.pl3     1 <0>        -0.8253
     24 C16        -0.0997    3.2123   -3.0330 C.3       1 <0>        -0.0824
     25 H2         -1.5907   -0.9944   -1.0150 H         1 <0>         0.0743
     26 H3         -1.1020   -1.7557    0.5179 H         1 <0>         0.0737
     27 H4         -2.0498   -0.2491    0.5349 H         1 <0>         0.0617
     28 H5          1.2923   -1.7000   -0.0185 H         1 <0>         0.1272
     29 H6          3.3623   -0.4231   -0.0341 H         1 <0>         0.1264
     30 H7          3.3321    2.0607   -0.0198 H         1 <0>         0.1310
     31 H8         -2.0236    1.9650    0.0201 H         1 <0>         0.4154
     32 H9          2.2944    5.4811    3.2097 H         1 <0>         0.4294
     33 H10         3.3959    6.4355    2.3741 H         1 <0>         0.4141
     34 H11         0.3628    2.2603   -3.2932 H         1 <0>         0.0885
     35 H12        -0.8674    3.0487   -2.2767 H         1 <0>         0.0733
     36 H13        -0.5530    3.6511   -3.9219 H         1 <0>         0.0834
@<TRIPOS>BOND
     1    1    2 1
     2    1   25 1
     3    1   26 1
     4    1   27 1
     5    2    7 ar
     6    2    3 ar
     7    3    4 ar
     8    3   28 1
     9    4    5 ar
    10    4   29 1
    11    5    6 ar
    12    5   30 1
    13    6   11 1
    14    6    7 ar
    15    7    8 1
    16    8    9 am
    17    8   31 1
    18    9   10 2
    19    9   11 1
    20   11   20 1
    21   11   12 1
    22   12   13 1
    23   12   17 2
    24   13   24 1
    25   13   14 2
    26   14   16 1
    27   15   16 1
    28   16   17 1
    29   17   18 1
    30   18   19 1
    31   19   20 2
    32   19   23 1
    33   20   21 1
    34   21   22 3
    35   23   32 1
    36   23   33 1
    37   24   34 1
    38   24   35 1
    39   24   36 1
@<TRIPOS>MOLECULE
ZINC05343300
   46    48     0     0     0
SMALL
USER_CHARGES
2-(3,4-dimethylphenyl)-4-(2-hydroxyethylaminomethylene)isoquinoline-1,3-dione
@<TRIPOS>ATOM
      1 C1          0.3400    5.6230   -0.0911 C.3       1 <0>        -0.1274
      2 C2         -0.7109    4.5453   -0.1635 C.ar      1 <0>        -0.0559
      3 C3         -1.3108    4.0874    0.9955 C.ar      1 <0>        -0.1042
      4 C4         -2.2741    3.1000    0.9323 C.ar      1 <0>        -0.0885
      5 C5         -2.6363    2.5628   -0.2960 C.ar      1 <0>         0.0855
      6 C6         -2.0357    3.0279   -1.4580 C.ar      1 <0>        -0.0876
      7 C7         -1.0731    4.0162   -1.3884 C.ar      1 <0>        -0.0740
      8 C8         -0.4173    4.5183   -2.6489 C.3       1 <0>        -0.1222
      9 N1         -3.6092    1.5569   -0.3628 N.am      1 <0>        -0.5008
     10 C9         -4.8973    1.9166   -0.4842 C.2       1 <0>         0.5544
     11 O1         -5.1864    3.0972   -0.5334 O.2       1 <0>        -0.4370
     12 C10        -5.9621    0.9086   -0.5641 C.ar      1 <0>        -0.1120
     13 C11        -7.3020    1.2754   -0.6952 C.ar      1 <0>        -0.0230
     14 C12        -8.2728    0.2995   -0.7615 C.ar      1 <0>        -0.0946
     15 C13        -7.9325   -1.0440   -0.6994 C.ar      1 <0>        -0.0571
     16 C14        -6.6136   -1.4282   -0.5699 C.ar      1 <0>        -0.1512
     17 C15        -5.6202   -0.4583   -0.5014 C.ar      1 <0>        -0.0607
     18 C16        -4.1928   -0.8149   -0.3621 C.3       1 <0>        -0.1126
     19 C17        -3.7941   -2.1316   -0.2948 C.2       1 <0>         0.3853
     20 C18        -4.2266   -4.5352   -0.8791 C.3       1 <0>         0.0714
     21 C19        -5.3089   -5.3025   -1.6412 C.3       1 <0>         0.0462
     22 O2         -5.2888   -4.9146   -3.0165 O.3       1 <0>        -0.5788
     23 C20        -3.2131    0.2753   -0.2971 C.2       1 <0>         0.5517
     24 O3         -2.0292    0.0156   -0.1820 O.2       1 <0>        -0.4561
     25 H1          1.3229    5.1650    0.0205 H         1 <0>         0.0803
     26 H2          0.3168    6.2153   -1.0057 H         1 <0>         0.0775
     27 H3          0.1406    6.2680    0.7646 H         1 <0>         0.0739
     28 H4         -1.0258    4.5027    1.9508 H         1 <0>         0.1380
     29 H5         -2.7422    2.7428    1.8377 H         1 <0>         0.1279
     30 H6         -2.3180    2.6147   -2.4151 H         1 <0>         0.1242
     31 H7          0.4708    3.9222   -2.8587 H         1 <0>         0.0776
     32 H8         -1.1165    4.4338   -3.4808 H         1 <0>         0.0688
     33 H9         -0.1317    5.5622   -2.5189 H         1 <0>         0.0794
     34 H10        -7.5768    2.3187   -0.7440 H         1 <0>         0.1606
     35 H11        -9.3098    0.5837   -0.8634 H         1 <0>         0.1550
     36 H12        -8.7063   -1.7956   -0.7533 H         1 <0>         0.1517
     37 H13        -6.3547   -2.4756   -0.5217 H         1 <0>         0.1398
     38 H14        -2.8844   -2.3945    0.2246 H         1 <0>         0.2418
     39 H15        -3.7847   -0.9171   -1.2693 H         1 <0>         0.1657
     40 H16        -3.2617   -4.6931   -1.3611 H         1 <0>         0.1317
     41 H17        -4.1821   -4.8946    0.1490 H         1 <0>         0.1404
     42 H18        -5.1190   -6.3728   -1.5628 H         1 <0>         0.0964
     43 H19        -6.2852   -5.0744   -1.2137 H         1 <0>         0.0685
     44 H20        -5.9505   -5.3625   -3.5611 H         1 <0>         0.4049
     45 N2         -4.6062   -3.0807   -0.9164 N.pl3     1 <0>        -0.6097
     46 H21        -5.4630   -2.7859   -1.3994 H         1 <0>         0.4554
@<TRIPOS>BOND
     1    1    2 1
     2    1   25 1
     3    1   26 1
     4    1   27 1
     5    2    7 ar
     6    2    3 ar
     7    3    4 ar
     8    3   28 1
     9    4    5 ar
    10    4   29 1
    11    5    6 ar
    12    5    9 1
    13    6    7 ar
    14    6   30 1
    15    7    8 1
    16    8   31 1
    17    8   32 1
    18    8   33 1
    19    9   23 am
    20    9   10 am
    21   10   11 2
    22   10   12 1
    23   12   17 ar
    24   12   13 ar
    25   13   14 ar
    26   13   34 1
    27   14   15 ar
    28   14   35 1
    29   15   16 ar
    30   15   36 1
    31   16   17 ar
    32   16   37 1
    33   17   18 1
    34   18   23 1
    35   18   39 1
    36   18   19 1
    37   19   38 1
    38   19   45 2
    39   20   21 1
    40   20   40 1
    41   20   41 1
    42   20   45 1
    43   21   22 1
    44   21   42 1
    45   21   43 1
    46   22   44 1
    47   23   24 2
    48   45   46 1
@<TRIPOS>MOLECULE
ZINC02231377
   32    34     0     0     0
SMALL
USER_CHARGES
3-chloro-8-[(3-chlorophenyl)methylamino]-4-methyl-1,5,7,9-tetrazabicyclo[4.3.0]nona-3,6,8-trien-2-one
@<TRIPOS>ATOM
      1 C1          2.4558    1.6977   -0.0118 C.3       1 <0>        -0.1370
      2 C2          1.1378    2.4283    0.0042 C.2       1 <0>         0.2365
      3 C3         -0.0215    1.7317    0.0116 C.2       1 <0>        -0.2244
      4 C4         -1.2511    2.4258    0.0211 C.2       1 <0>         0.5718
      5 O1         -2.3022    1.8095    0.0223 O.2       1 <0>        -0.4630
      6 N1         -1.2561    3.7706    0.0344 N.am      1 <0>        -0.3663
      7 C5         -0.0856    4.4647    0.0270 C.2       1 <0>         0.5214
      8 N2          1.1140    3.7926    0.0118 N.pl3     1 <0>        -0.5760
      9 H1          1.9723    4.3057    0.0063 H         1 <0>         0.4541
     10 N3         -0.3829    5.7482    0.0367 N.2       1 <0>        -0.5588
     11 C6         -1.7102    5.9043    0.0503 C.2       1 <0>         0.5123
     12 N4         -2.2845    4.7230    0.0494 N.2       1 <0>        -0.3277
     13 N5         -2.3787    7.1263    0.0640 N.pl3     1 <0>        -0.6855
     14 C7         -3.8432    7.1599    0.0785 C.3       1 <0>         0.1793
     15 C8         -4.3127    8.5918    0.0915 C.ar      1 <0>        -0.0993
     16 C9         -4.5398    9.2556   -1.0999 C.ar      1 <0>        -0.0917
     17 C10        -4.9713   10.5687   -1.0888 C.ar      1 <0>        -0.1079
     18 C11        -5.1757   11.2192    0.1137 C.ar      1 <0>        -0.0990
     19 C12        -4.9483   10.5557    1.3060 C.ar      1 <0>        -0.0379
     20 C13        -4.5218    9.2394    1.2943 C.ar      1 <0>        -0.0879
     21 Cl1        -5.2053   11.3717    2.8166 Cl        1 <0>        -0.0642
     22 Cl2         0.0021   -0.0041    0.0020 Cl        1 <0>         0.0103
     23 H2          2.2753    0.6228   -0.0156 H         1 <0>         0.1100
     24 H3          3.0143    1.9755   -0.9057 H         1 <0>         0.1035
     25 H4          3.0310    1.9665    0.8742 H         1 <0>         0.1035
     26 H5         -1.8745    7.9549    0.0640 H         1 <0>         0.4199
     27 H6         -4.2270    6.6598   -0.8108 H         1 <0>         0.0814
     28 H7         -4.2096    6.6493    0.9691 H         1 <0>         0.0799
     29 H8         -4.3802    8.7478   -2.0397 H         1 <0>         0.1330
     30 H9         -5.1491   11.0865   -2.0197 H         1 <0>         0.1366
     31 H10        -5.5132   12.2450    0.1223 H         1 <0>         0.1363
     32 H11        -4.3484    8.7195    2.2249 H         1 <0>         0.1367
@<TRIPOS>BOND
     1    1    2 1
     2    1   23 1
     3    1   24 1
     4    1   25 1
     5    2    8 1
     6    2    3 2
     7    3    4 1
     8    3   22 1
     9    4    5 2
    10    4    6 am
    11    6   12 1
    12    6    7 1
    13    7    8 1
    14    7   10 2
    15    8    9 1
    16   10   11 1
    17   11   12 2
    18   11   13 1
    19   13   14 1
    20   13   26 1
    21   14   15 1
    22   14   27 1
    23   14   28 1
    24   15   20 ar
    25   15   16 ar
    26   16   17 ar
    27   16   29 1
    28   17   18 ar
    29   17   30 1
    30   18   19 ar
    31   18   31 1
    32   19   20 ar
    33   19   21 1
    34   20   32 1
@<TRIPOS>MOLECULE
ZINC05343311
   38    40     0     0     0
SMALL
USER_CHARGES
N-(2-furylmethyl)-N-[(2-hydroxy-3-quinolyl)methyl]acetamide
@<TRIPOS>ATOM
      1 C1         -3.2122    0.8282   -2.4959 C.3       1 <0>        -0.1834
      2 C2         -2.2801    0.4384   -1.3777 C.2       1 <0>         0.5206
      3 O1         -2.5676   -0.4816   -0.6416 O.2       1 <0>        -0.5268
      4 N1         -1.1270    1.1122   -1.1959 N.am      1 <0>        -0.6133
      5 C3         -0.1668    0.6612   -0.1855 C.3       1 <0>         0.1903
      6 C4         -0.4832    1.3145    1.1352 C.2       1 <0>        -0.0520
      7 C5         -1.3066    0.8232    2.0786 C.2       1 <0>        -0.1712
      8 C6         -1.3104    1.7531    3.1435 C.2       1 <0>        -0.2173
      9 C7         -0.4891    2.7571    2.7872 C.2       1 <0>        -0.0307
     10 O2          0.0135    2.4832    1.5723 O.3       1 <0>        -0.1778
     11 C8         -0.8339    2.2953   -2.0084 C.3       1 <0>         0.1439
     12 C9         -0.1450    1.8730   -3.2805 C.ar      1 <0>        -0.2340
     13 C10        -0.8602    1.7451   -4.4342 C.ar      1 <0>        -0.0052
     14 C11        -0.1779    1.3480   -5.6014 C.ar      1 <0>        -0.1361
     15 C12        -0.8491    1.2074   -6.8262 C.ar      1 <0>        -0.0820
     16 C13        -0.1541    0.8326   -7.9358 C.ar      1 <0>        -0.1269
     17 C14         1.2146    0.5809   -7.8705 C.ar      1 <0>        -0.0833
     18 C15         1.8909    0.6791   -6.6927 C.ar      1 <0>        -0.1056
     19 C16         1.2125    1.0870   -5.5314 C.ar      1 <0>         0.1752
     20 N2          1.8602    1.2303   -4.3698 N.ar      1 <0>        -0.4957
     21 C17         1.2347    1.6327   -3.2845 C.ar      1 <0>         0.3720
     22 O3          1.9343    1.7744   -2.1320 O.3       1 <0>        -0.4508
     23 H1         -2.8379    1.7282   -2.9838 H         1 <0>         0.0799
     24 H2         -3.2674    0.0173   -3.2222 H         1 <0>         0.1004
     25 H3         -4.2054    1.0210   -2.0904 H         1 <0>         0.0997
     26 H4         -0.2320   -0.4218   -0.0801 H         1 <0>         0.1213
     27 H5          0.8417    0.9361   -0.4945 H         1 <0>         0.0937
     28 H6         -1.8591   -0.1036    2.0314 H         1 <0>         0.1515
     29 H7         -1.8662    1.6730    4.0661 H         1 <0>         0.1497
     30 H8         -0.2675    3.6324    3.3798 H         1 <0>         0.2049
     31 H9         -1.7644    2.8083   -2.2522 H         1 <0>         0.1109
     32 H10        -0.1837    2.9681   -1.4493 H         1 <0>         0.0963
     33 H11        -1.9217    1.9430   -4.4530 H         1 <0>         0.1481
     34 H12        -1.9100    1.3995   -6.8892 H         1 <0>         0.1320
     35 H13        -0.6706    0.7295   -8.8786 H         1 <0>         0.1302
     36 H14         1.7436    0.2845   -8.7642 H         1 <0>         0.1333
     37 H15         2.9482    0.4619   -6.6547 H         1 <0>         0.1383
     38 H16         1.3208    2.0845   -1.4057 H         1 <0>         0.4000
@<TRIPOS>BOND
     1    1    2 1
     2    1   23 1
     3    1   24 1
     4    1   25 1
     5    2    3 2
     6    2    4 am
     7    4    5 1
     8    4   11 1
     9    5    6 1
    10    5   26 1
    11    5   27 1
    12    6   10 1
    13    6    7 2
    14    7    8 1
    15    7   28 1
    16    8    9 2
    17    8   29 1
    18    9   10 1
    19    9   30 1
    20   11   12 1
    21   11   31 1
    22   11   32 1
    23   12   21 ar
    24   12   13 ar
    25   13   33 1
    26   13   14 ar
    27   14   15 ar
    28   14   19 ar
    29   15   16 ar
    30   15   34 1
    31   16   17 ar
    32   16   35 1
    33   17   18 ar
    34   17   36 1
    35   18   19 ar
    36   18   37 1
    37   19   20 ar
    38   20   21 ar
    39   21   22 1
    40   22   38 1
@<TRIPOS>MOLECULE
ZINC05343313
   21    22     0     0     0
SMALL
USER_CHARGES
2-[3-(2H-pyrazol-3-yl)-5-sulfanyl-1,2,4-triazol-4-yl]acetic acid
@<TRIPOS>ATOM
      1 C1         -2.4677   -0.5424    0.3163 C.2       1 <0>        -0.2144
      2 C2         -3.2574   -1.6851    0.1964 C.2       1 <0>         0.0418
      3 N1         -2.4938   -2.6885   -0.1544 N.2       1 <0>        -0.2738
      4 N2         -1.1767   -2.2301   -0.2812 N.pl3     1 <0>        -0.4630
      5 H1         -0.3829   -2.7812   -0.5384 H         1 <0>         0.4507
      6 C3         -1.1704   -0.8962    0.0092 C.2       1 <0>         0.1550
      7 C4          0.0021   -0.0041    0.0020 C.2       1 <0>         0.2482
      8 N3         -0.0157    1.3101    0.0092 N.2       1 <0>        -0.2595
      9 N4          1.1861    1.7649    0.0002 N.2       1 <0>        -0.2436
     10 C5          2.0458    0.7705   -0.0133 C.2       1 <0>         0.1658
     11 N5          1.3241   -0.3894   -0.0127 N.pl3     1 <0>        -0.4169
     12 C6          1.8474   -1.7577   -0.0254 C.3       1 <0>         0.0377
     13 C7          2.0134   -2.2187   -1.4505 C.2       1 <0>         0.4483
     14 O1          1.7243   -1.4801   -2.3620 O.co2     1 <0>        -0.6121
     15 S1          3.8023    0.9082   -0.0289 S.3       1 <0>        -0.0215
     16 H2         -2.8104    0.4427    0.5967 H         1 <0>         0.1610
     17 H3         -4.3224   -1.7351    0.3690 H         1 <0>         0.1909
     18 H4          2.8133   -1.7820    0.4792 H         1 <0>         0.1241
     19 H5          1.1508   -2.4179    0.4912 H         1 <0>         0.0982
     20 H6          4.0336    0.9345   -1.4195 H         1 <0>         0.1172
     21 O2          2.4825   -3.4499   -1.7073 O.co2     1 <0>        -0.7341
@<TRIPOS>BOND
     1    1    6 2
     2    1    2 1
     3    1   16 1
     4    2    3 2
     5    2   17 1
     6    3    4 1
     7    4    5 1
     8    4    6 1
     9    6    7 1
    10    7   11 1
    11    7    8 2
    12    8    9 1
    13    9   10 2
    14   10   11 1
    15   10   15 1
    16   11   12 1
    17   12   13 1
    18   12   18 1
    19   12   19 1
    20   13   14 2
    21   13   21 1
    22   15   20 1
@<TRIPOS>MOLECULE
ZINC05343318
   34    36     0     0     0
SMALL
USER_CHARGES
[1-[(4-nitrophenyl)methyleneamino]benzoimidazol-2-yl]methanol
@<TRIPOS>ATOM
      1 C1         -7.4097   -0.5408   -2.8338 C.ar      1 <0>        -0.1237
      2 C2         -6.2927    0.1243   -3.3191 C.ar      1 <0>        -0.0926
      3 C3         -5.3653    0.6590   -2.4498 C.ar      1 <0>        -0.1103
      4 C4         -5.5520    0.5299   -1.0807 C.ar      1 <0>         0.0550
      5 C5         -6.6821   -0.1466   -0.5895 C.ar      1 <0>         0.0493
      6 C6         -7.6059   -0.6844   -1.4892 C.ar      1 <0>        -0.0571
      7 N1         -6.6065   -0.1126    0.7662 N.2       1 <0>        -0.4582
      8 C7         -5.5287    0.5201    1.1299 C.2       1 <0>         0.2854
      9 N2         -4.8374    0.9362    0.0310 N.pl3     1 <0>        -0.3590
     10 N3         -3.6308    1.6482    0.0287 N.2       1 <0>        -0.2381
     11 C8         -2.5009    1.0100    0.0199 C.2       1 <0>         0.1781
     12 C9         -1.2307    1.7595    0.0174 C.ar      1 <0>        -0.0293
     13 C10        -0.0126    1.0758    0.0080 C.ar      1 <0>        -0.0751
     14 C11         1.1715    1.7833    0.0005 C.ar      1 <0>        -0.0593
     15 C12         1.1545    3.1669    0.0071 C.ar      1 <0>        -0.0193
     16 C13        -0.0483    3.8507    0.0213 C.ar      1 <0>        -0.0593
     17 C14        -1.2401    3.1563    0.0299 C.ar      1 <0>        -0.0667
     18 N4          2.4294    3.9192   -0.0015 N.pl3     1 <0>         0.0207
     19 O1          3.4899    3.3202   -0.0144 O.2       1 <0>        -0.1489
     20 O2          2.4179    5.1371    0.0043 O.3       1 <0>        -0.1485
     21 C15        -5.1064    0.7575    2.5569 C.3       1 <0>         0.1600
     22 O3         -5.6569    1.9933    3.0172 O.3       1 <0>        -0.5570
     23 H1         -8.1278   -0.9549   -3.5260 H         1 <0>         0.1351
     24 H2         -6.1485    0.2237   -4.3848 H         1 <0>         0.1346
     25 H3         -4.4978    1.1760   -2.8327 H         1 <0>         0.1212
     26 H4         -8.4797   -1.2024   -1.1223 H         1 <0>         0.1353
     27 H5         -2.4907   -0.0699    0.0144 H         1 <0>         0.1383
     28 H6          0.0021   -0.0041    0.0020 H         1 <0>         0.1581
     29 H7          2.1140    1.2561   -0.0110 H         1 <0>         0.1640
     30 H8         -0.0541    4.9307    0.0261 H         1 <0>         0.1629
     31 H9         -2.1782    3.6913    0.0410 H         1 <0>         0.1608
     32 H10        -5.4689   -0.0575    3.1834 H         1 <0>         0.0906
     33 H11        -4.0187    0.8016    2.6115 H         1 <0>         0.0606
     34 H12        -5.4256    2.2109    3.9306 H         1 <0>         0.3922
@<TRIPOS>BOND
     1    1    6 ar
     2    1    2 ar
     3    1   23 1
     4    2    3 ar
     5    2   24 1
     6    3    4 ar
     7    3   25 1
     8    4    9 1
     9    4    5 ar
    10    5    6 ar
    11    5    7 1
    12    6   26 1
    13    7    8 2
    14    8    9 1
    15    8   21 1
    16    9   10 1
    17   10   11 2
    18   11   12 1
    19   11   27 1
    20   12   17 ar
    21   12   13 ar
    22   13   14 ar
    23   13   28 1
    24   14   15 ar
    25   14   29 1
    26   15   16 ar
    27   15   18 1
    28   16   17 ar
    29   16   30 1
    30   17   31 1
    31   18   19 2
    32   18   20 1
    33   21   22 1
    34   21   32 1
    35   21   33 1
    36   22   34 1
@<TRIPOS>MOLECULE
ZINC02235831
   55    58     0     0     0
SMALL
USER_CHARGES
2-diethylamino-1-[2-(2-naphthyl)-4-quinolyl]-ethanol
@<TRIPOS>ATOM
      1 C1          7.0053   11.3096   -1.5429 C.3       1 <0>        -0.1912
      2 C2          5.8645   11.9318   -0.7352 C.3       1 <0>        -0.0175
      3 C3          4.5056   12.0745   -2.7341 C.3       1 <0>        -0.0127
      4 C4          4.3757   13.5990   -2.7241 C.3       1 <0>        -0.1881
      5 C5          4.3482   10.1304   -1.2995 C.3       1 <0>        -0.0450
      6 C6          4.1837    9.6933    0.1575 C.3       1 <0>         0.1329
      7 H1          5.0504   10.0170    0.7339 H         1 <0>         0.1364
      8 C7          4.0699    8.1920    0.2218 C.ar      1 <0>        -0.0806
      9 C8          2.8501    7.5838    0.2474 C.ar      1 <0>        -0.1376
     10 C9          2.7687    6.1837    0.3069 C.ar      1 <0>         0.2138
     11 N1          3.8520    5.4313    0.3445 N.ar      1 <0>        -0.4543
     12 C10         5.0726    5.9723    0.3163 C.ar      1 <0>         0.1409
     13 C11         5.2214    7.3809    0.2565 C.ar      1 <0>        -0.0925
     14 C12         6.5081    7.9414    0.2334 C.ar      1 <0>        -0.1253
     15 C13         7.5987    7.1266    0.2678 C.ar      1 <0>        -0.0928
     16 C14         7.4552    5.7418    0.3266 C.ar      1 <0>        -0.0978
     17 C15         6.2234    5.1641    0.3509 C.ar      1 <0>        -0.0796
     18 C16         1.4356    5.5361    0.3342 C.ar      1 <0>        -0.0747
     19 C17         0.2757    6.3279    0.3008 C.ar      1 <0>        -0.1027
     20 C18        -0.9570    5.7591    0.3247 C.ar      1 <0>        -0.1019
     21 C19        -1.0844    4.3594    0.3836 C.ar      1 <0>        -0.0384
     22 C20        -2.3486    3.7469    0.4088 C.ar      1 <0>        -0.1129
     23 C21        -2.4399    2.3897    0.4607 C.ar      1 <0>        -0.1015
     24 C22        -1.2962    1.5943    0.5002 C.ar      1 <0>        -0.1131
     25 C23        -0.0548    2.1515    0.4773 C.ar      1 <0>        -0.0993
     26 C24         0.0793    3.5502    0.4183 C.ar      1 <0>        -0.0612
     27 C25         1.3442    4.1576    0.3927 C.ar      1 <0>        -0.0415
     28 O1          3.0020   10.2844    0.7017 O.3       1 <0>        -0.5417
     29 H2          7.9498   11.4753   -1.0248 H         1 <0>         0.1092
     30 H3          6.8327   10.2387   -1.6501 H         1 <0>         0.0790
     31 H4          7.0461   11.7715   -2.5294 H         1 <0>         0.0845
     32 H5          5.9773   13.0159   -0.7228 H         1 <0>         0.1348
     33 H6          5.8930   11.5518    0.2860 H         1 <0>         0.1276
     34 H7          5.4113   11.7906   -3.2701 H         1 <0>         0.1337
     35 H8          3.6382   11.6392   -3.2303 H         1 <0>         0.1284
     36 H9          3.4843   13.8840   -2.1653 H         1 <0>         0.0811
     37 H10         5.2557   14.0355   -2.2517 H         1 <0>         0.0804
     38 H11         4.2946   13.9635   -3.7481 H         1 <0>         0.1071
     39 H12         5.1985    9.6108   -1.7409 H         1 <0>         0.1463
     40 H13         3.4437    9.8857   -1.8565 H         1 <0>         0.1380
     41 H14         1.9484    8.1778    0.2217 H         1 <0>         0.1422
     42 H15         6.6326    9.0133    0.1875 H         1 <0>         0.1210
     43 H16         8.5880    7.5594    0.2493 H         1 <0>         0.1340
     44 H17         8.3358    5.1169    0.3530 H         1 <0>         0.1391
     45 H18         6.1296    4.0892    0.3969 H         1 <0>         0.1438
     46 H19         0.3656    7.4033    0.2559 H         1 <0>         0.1228
     47 H20        -1.8395    6.3811    0.2981 H         1 <0>         0.1335
     48 H21        -3.2441    4.3501    0.3825 H         1 <0>         0.1311
     49 H22        -3.4134    1.9224    0.4759 H         1 <0>         0.1286
     50 H23        -1.3965    0.5199    0.5452 H         1 <0>         0.1289
     51 H24         0.8229    1.5227    0.5047 H         1 <0>         0.1314
     52 H25         2.2389    3.5533    0.4189 H         1 <0>         0.1420
     53 H26         2.1900   10.0396    0.2370 H         1 <0>         0.3897
     54 N2          4.5580   11.5930   -1.3377 N.4       1 <0>        -0.3919
     55 H27         3.8135   12.0509   -0.7988 H         1 <0>         0.4336
@<TRIPOS>BOND
     1    1    2 1
     2    1   29 1
     3    1   30 1
     4    1   31 1
     5    2   32 1
     6    2   33 1
     7    2   54 1
     8    3    4 1
     9    3   34 1
    10    3   35 1
    11    3   54 1
    12    4   36 1
    13    4   37 1
    14    4   38 1
    15    5    6 1
    16    5   39 1
    17    5   40 1
    18    5   54 1
    19    6    7 1
    20    6    8 1
    21    6   28 1
    22    8   13 ar
    23    8    9 ar
    24    9   10 ar
    25    9   41 1
    26   10   11 ar
    27   10   18 1
    28   11   12 ar
    29   12   17 ar
    30   12   13 ar
    31   13   14 ar
    32   14   15 ar
    33   14   42 1
    34   15   16 ar
    35   15   43 1
    36   16   17 ar
    37   16   44 1
    38   17   45 1
    39   18   27 ar
    40   18   19 ar
    41   19   20 ar
    42   19   46 1
    43   20   21 ar
    44   20   47 1
    45   21   26 ar
    46   21   22 ar
    47   22   23 ar
    48   22   48 1
    49   23   24 ar
    50   23   49 1
    51   24   25 ar
    52   24   50 1
    53   25   26 ar
    54   25   51 1
    55   26   27 ar
    56   27   52 1
    57   28   53 1
    58   54   55 1
@<TRIPOS>MOLECULE
ZINC02236374
   55    58     0     0     0
SMALL
USER_CHARGES
2-diethylamino-1-[2-(2-naphthyl)-4-quinolyl]-ethanol
@<TRIPOS>ATOM
      1 C1          7.0053   11.3096   -1.5429 C.3       1 <0>        -0.1912
      2 C2          5.8645   11.9318   -0.7352 C.3       1 <0>        -0.0175
      3 C3          4.5056   12.0745   -2.7341 C.3       1 <0>        -0.0127
      4 C4          4.3757   13.5990   -2.7241 C.3       1 <0>        -0.1881
      5 C5          4.3482   10.1304   -1.2995 C.3       1 <0>        -0.0450
      6 C6          4.1837    9.6933    0.1575 C.3       1 <0>         0.1329
      7 H1          5.0504   10.0170    0.7339 H         1 <0>         0.1364
      8 C7          4.0699    8.1920    0.2218 C.ar      1 <0>        -0.0806
      9 C8          2.8501    7.5838    0.2474 C.ar      1 <0>        -0.1376
     10 C9          2.7687    6.1837    0.3069 C.ar      1 <0>         0.2138
     11 N1          3.8520    5.4313    0.3445 N.ar      1 <0>        -0.4543
     12 C10         5.0726    5.9723    0.3163 C.ar      1 <0>         0.1409
     13 C11         5.2214    7.3809    0.2565 C.ar      1 <0>        -0.0925
     14 C12         6.5081    7.9414    0.2334 C.ar      1 <0>        -0.1253
     15 C13         7.5987    7.1266    0.2678 C.ar      1 <0>        -0.0928
     16 C14         7.4552    5.7418    0.3266 C.ar      1 <0>        -0.0978
     17 C15         6.2234    5.1641    0.3509 C.ar      1 <0>        -0.0796
     18 C16         1.4356    5.5361    0.3342 C.ar      1 <0>        -0.0747
     19 C17         0.2757    6.3279    0.3008 C.ar      1 <0>        -0.1027
     20 C18        -0.9570    5.7591    0.3247 C.ar      1 <0>        -0.1019
     21 C19        -1.0844    4.3594    0.3836 C.ar      1 <0>        -0.0384
     22 C20        -2.3486    3.7469    0.4088 C.ar      1 <0>        -0.1129
     23 C21        -2.4399    2.3897    0.4607 C.ar      1 <0>        -0.1015
     24 C22        -1.2962    1.5943    0.5002 C.ar      1 <0>        -0.1131
     25 C23        -0.0548    2.1515    0.4773 C.ar      1 <0>        -0.0993
     26 C24         0.0793    3.5502    0.4183 C.ar      1 <0>        -0.0612
     27 C25         1.3442    4.1576    0.3927 C.ar      1 <0>        -0.0415
     28 O1          3.0020   10.2844    0.7017 O.3       1 <0>        -0.5417
     29 H2          7.9498   11.4753   -1.0248 H         1 <0>         0.1092
     30 H3          6.8327   10.2387   -1.6501 H         1 <0>         0.0790
     31 H4          7.0461   11.7715   -2.5294 H         1 <0>         0.0845
     32 H5          5.9773   13.0159   -0.7228 H         1 <0>         0.1348
     33 H6          5.8930   11.5518    0.2860 H         1 <0>         0.1276
     34 H7          5.4113   11.7906   -3.2701 H         1 <0>         0.1337
     35 H8          3.6382   11.6392   -3.2303 H         1 <0>         0.1284
     36 H9          3.4843   13.8840   -2.1653 H         1 <0>         0.0811
     37 H10         5.2557   14.0355   -2.2517 H         1 <0>         0.0804
     38 H11         4.2946   13.9635   -3.7481 H         1 <0>         0.1071
     39 H12         5.1985    9.6108   -1.7409 H         1 <0>         0.1463
     40 H13         3.4437    9.8857   -1.8565 H         1 <0>         0.1380
     41 H14         1.9484    8.1778    0.2217 H         1 <0>         0.1422
     42 H15         6.6326    9.0133    0.1875 H         1 <0>         0.1210
     43 H16         8.5880    7.5594    0.2493 H         1 <0>         0.1340
     44 H17         8.3358    5.1169    0.3530 H         1 <0>         0.1391
     45 H18         6.1296    4.0892    0.3969 H         1 <0>         0.1438
     46 H19         0.3656    7.4033    0.2559 H         1 <0>         0.1228
     47 H20        -1.8395    6.3811    0.2981 H         1 <0>         0.1335
     48 H21        -3.2441    4.3501    0.3825 H         1 <0>         0.1311
     49 H22        -3.4134    1.9224    0.4759 H         1 <0>         0.1286
     50 H23        -1.3965    0.5199    0.5452 H         1 <0>         0.1289
     51 H24         0.8229    1.5227    0.5047 H         1 <0>         0.1314
     52 H25         2.2389    3.5533    0.4189 H         1 <0>         0.1420
     53 H26         2.1900   10.0396    0.2370 H         1 <0>         0.3897
     54 N2          4.5580   11.5930   -1.3377 N.4       1 <0>        -0.3919
     55 H27         3.8135   12.0509   -0.7988 H         1 <0>         0.4336
@<TRIPOS>BOND
     1    1    2 1
     2    1   29 1
     3    1   30 1
     4    1   31 1
     5    2   32 1
     6    2   33 1
     7    2   54 1
     8    3    4 1
     9    3   34 1
    10    3   35 1
    11    3   54 1
    12    4   36 1
    13    4   37 1
    14    4   38 1
    15    5    6 1
    16    5   39 1
    17    5   40 1
    18    5   54 1
    19    6    7 1
    20    6    8 1
    21    6   28 1
    22    8   13 ar
    23    8    9 ar
    24    9   10 ar
    25    9   41 1
    26   10   11 ar
    27   10   18 1
    28   11   12 ar
    29   12   17 ar
    30   12   13 ar
    31   13   14 ar
    32   14   15 ar
    33   14   42 1
    34   15   16 ar
    35   15   43 1
    36   16   17 ar
    37   16   44 1
    38   17   45 1
    39   18   27 ar
    40   18   19 ar
    41   19   20 ar
    42   19   46 1
    43   20   21 ar
    44   20   47 1
    45   21   26 ar
    46   21   22 ar
    47   22   23 ar
    48   22   48 1
    49   23   24 ar
    50   23   49 1
    51   24   25 ar
    52   24   50 1
    53   25   26 ar
    54   25   51 1
    55   26   27 ar
    56   27   52 1
    57   28   53 1
    58   54   55 1
@<TRIPOS>MOLECULE
ZINC02236422
   55    58     0     0     0
SMALL
USER_CHARGES
2-diethylamino-1-[2-(2-naphthyl)-4-quinolyl]-ethanol
@<TRIPOS>ATOM
      1 C1          7.0053   11.3096   -1.5429 C.3       1 <0>        -0.1912
      2 C2          5.8645   11.9318   -0.7352 C.3       1 <0>        -0.0175
      3 C3          4.5056   12.0745   -2.7341 C.3       1 <0>        -0.0127
      4 C4          4.3757   13.5990   -2.7241 C.3       1 <0>        -0.1881
      5 C5          4.3482   10.1304   -1.2995 C.3       1 <0>        -0.0450
      6 C6          4.1837    9.6933    0.1575 C.3       1 <0>         0.1329
      7 H1          5.0504   10.0170    0.7339 H         1 <0>         0.1364
      8 C7          4.0699    8.1920    0.2218 C.ar      1 <0>        -0.0806
      9 C8          2.8501    7.5838    0.2474 C.ar      1 <0>        -0.1376
     10 C9          2.7687    6.1837    0.3069 C.ar      1 <0>         0.2138
     11 N1          3.8520    5.4313    0.3445 N.ar      1 <0>        -0.4543
     12 C10         5.0726    5.9723    0.3163 C.ar      1 <0>         0.1409
     13 C11         5.2214    7.3809    0.2565 C.ar      1 <0>        -0.0925
     14 C12         6.5081    7.9414    0.2334 C.ar      1 <0>        -0.1253
     15 C13         7.5987    7.1266    0.2678 C.ar      1 <0>        -0.0928
     16 C14         7.4552    5.7418    0.3266 C.ar      1 <0>        -0.0978
     17 C15         6.2234    5.1641    0.3509 C.ar      1 <0>        -0.0796
     18 C16         1.4356    5.5361    0.3342 C.ar      1 <0>        -0.0747
     19 C17         0.2757    6.3279    0.3008 C.ar      1 <0>        -0.1027
     20 C18        -0.9570    5.7591    0.3247 C.ar      1 <0>        -0.1019
     21 C19        -1.0844    4.3594    0.3836 C.ar      1 <0>        -0.0384
     22 C20        -2.3486    3.7469    0.4088 C.ar      1 <0>        -0.1129
     23 C21        -2.4399    2.3897    0.4607 C.ar      1 <0>        -0.1015
     24 C22        -1.2962    1.5943    0.5002 C.ar      1 <0>        -0.1131
     25 C23        -0.0548    2.1515    0.4773 C.ar      1 <0>        -0.0993
     26 C24         0.0793    3.5502    0.4183 C.ar      1 <0>        -0.0612
     27 C25         1.3442    4.1576    0.3927 C.ar      1 <0>        -0.0415
     28 O1          3.0020   10.2844    0.7017 O.3       1 <0>        -0.5417
     29 H2          7.9498   11.4753   -1.0248 H         1 <0>         0.1092
     30 H3          6.8327   10.2387   -1.6501 H         1 <0>         0.0790
     31 H4          7.0461   11.7715   -2.5294 H         1 <0>         0.0845
     32 H5          5.9773   13.0159   -0.7228 H         1 <0>         0.1348
     33 H6          5.8930   11.5518    0.2860 H         1 <0>         0.1276
     34 H7          5.4113   11.7906   -3.2701 H         1 <0>         0.1337
     35 H8          3.6382   11.6392   -3.2303 H         1 <0>         0.1284
     36 H9          3.4843   13.8840   -2.1653 H         1 <0>         0.0811
     37 H10         5.2557   14.0355   -2.2517 H         1 <0>         0.0804
     38 H11         4.2946   13.9635   -3.7481 H         1 <0>         0.1071
     39 H12         5.1985    9.6108   -1.7409 H         1 <0>         0.1463
     40 H13         3.4437    9.8857   -1.8565 H         1 <0>         0.1380
     41 H14         1.9484    8.1778    0.2217 H         1 <0>         0.1422
     42 H15         6.6326    9.0133    0.1875 H         1 <0>         0.1210
     43 H16         8.5880    7.5594    0.2493 H         1 <0>         0.1340
     44 H17         8.3358    5.1169    0.3530 H         1 <0>         0.1391
     45 H18         6.1296    4.0892    0.3969 H         1 <0>         0.1438
     46 H19         0.3656    7.4033    0.2559 H         1 <0>         0.1228
     47 H20        -1.8395    6.3811    0.2981 H         1 <0>         0.1335
     48 H21        -3.2441    4.3501    0.3825 H         1 <0>         0.1311
     49 H22        -3.4134    1.9224    0.4759 H         1 <0>         0.1286
     50 H23        -1.3965    0.5199    0.5452 H         1 <0>         0.1289
     51 H24         0.8229    1.5227    0.5047 H         1 <0>         0.1314
     52 H25         2.2389    3.5533    0.4189 H         1 <0>         0.1420
     53 H26         2.1900   10.0396    0.2370 H         1 <0>         0.3897
     54 N2          4.5580   11.5930   -1.3377 N.4       1 <0>        -0.3919
     55 H27         3.8135   12.0509   -0.7988 H         1 <0>         0.4336
@<TRIPOS>BOND
     1    1    2 1
     2    1   29 1
     3    1   30 1
     4    1   31 1
     5    2   32 1
     6    2   33 1
     7    2   54 1
     8    3    4 1
     9    3   34 1
    10    3   35 1
    11    3   54 1
    12    4   36 1
    13    4   37 1
    14    4   38 1
    15    5    6 1
    16    5   39 1
    17    5   40 1
    18    5   54 1
    19    6    7 1
    20    6    8 1
    21    6   28 1
    22    8   13 ar
    23    8    9 ar
    24    9   10 ar
    25    9   41 1
    26   10   11 ar
    27   10   18 1
    28   11   12 ar
    29   12   17 ar
    30   12   13 ar
    31   13   14 ar
    32   14   15 ar
    33   14   42 1
    34   15   16 ar
    35   15   43 1
    36   16   17 ar
    37   16   44 1
    38   17   45 1
    39   18   27 ar
    40   18   19 ar
    41   19   20 ar
    42   19   46 1
    43   20   21 ar
    44   20   47 1
    45   21   26 ar
    46   21   22 ar
    47   22   23 ar
    48   22   48 1
    49   23   24 ar
    50   23   49 1
    51   24   25 ar
    52   24   50 1
    53   25   26 ar
    54   25   51 1
    55   26   27 ar
    56   27   52 1
    57   28   53 1
    58   54   55 1
@<TRIPOS>MOLECULE
ZINC05343360
   44    46     0     0     0
SMALL
USER_CHARGES
4-(2-hydroxyethylaminomethylene)-2-(3-methoxyphenyl)-isoquinoline-1,3-dione
@<TRIPOS>ATOM
      1 C1         -1.1231    3.2995   -0.5274 C.3       1 <0>         0.0234
      2 O1         -2.1778    3.6316    0.3778 O.3       1 <0>        -0.3129
      3 C2         -2.2790    2.8839    1.5081 C.ar      1 <0>         0.1439
      4 C3         -1.3842    1.8479    1.7379 C.ar      1 <0>        -0.1821
      5 C4         -1.4827    1.0904    2.8892 C.ar      1 <0>        -0.0636
      6 C5         -2.4788    1.3543    3.8097 C.ar      1 <0>        -0.1256
      7 C6         -3.3799    2.3862    3.5825 C.ar      1 <0>         0.1306
      8 C7         -3.2790    3.1518    2.4294 C.ar      1 <0>        -0.1284
      9 N1         -4.3892    2.6543    4.5163 N.am      1 <0>        -0.5028
     10 C8         -4.1281    3.5133    5.5150 C.2       1 <0>         0.5557
     11 O2         -3.0310    4.0339    5.5846 O.2       1 <0>        -0.4355
     12 C9         -5.1466    3.8384    6.5217 C.ar      1 <0>        -0.1117
     13 C10        -4.8837    4.7341    7.5588 C.ar      1 <0>        -0.0224
     14 C11        -5.8643    5.0092    8.4873 C.ar      1 <0>        -0.0945
     15 C12        -7.1104    4.4054    8.4020 C.ar      1 <0>        -0.0567
     16 C13        -7.3911    3.5170    7.3840 C.ar      1 <0>        -0.1510
     17 C14        -6.4147    3.2269    6.4381 C.ar      1 <0>        -0.0605
     18 C15        -6.6626    2.2831    5.3284 C.3       1 <0>        -0.1121
     19 C16        -7.8799    1.6530    5.1918 C.2       1 <0>         0.3853
     20 C17       -10.3595    1.6704    5.5880 C.3       1 <0>         0.0715
     21 C18       -11.3606    2.6263    6.2401 C.3       1 <0>         0.0461
     22 O3        -11.4166    3.8415    5.4904 O.3       1 <0>        -0.5787
     23 C19        -5.5736    2.0368    4.3766 C.2       1 <0>         0.5530
     24 O4         -5.7450    1.2645    3.4512 O.2       1 <0>        -0.4544
     25 H1         -0.1636    3.4031   -0.0209 H         1 <0>         0.0616
     26 H2         -1.1556    3.9713   -1.3853 H         1 <0>         0.1078
     27 H3         -1.2457    2.2709   -0.8666 H         1 <0>         0.0611
     28 H4         -0.6076    1.6363    1.0178 H         1 <0>         0.1417
     29 H5         -0.7827    0.2877    3.0678 H         1 <0>         0.1424
     30 H6         -2.5563    0.7578    4.7068 H         1 <0>         0.1313
     31 H7         -3.9788    3.9546    2.2503 H         1 <0>         0.1335
     32 H8         -3.9166    5.2090    7.6338 H         1 <0>         0.1609
     33 H9         -5.6606    5.7028    9.2897 H         1 <0>         0.1551
     34 H10        -7.8672    4.6326    9.1382 H         1 <0>         0.1517
     35 H11        -8.3629    3.0501    7.3227 H         1 <0>         0.1399
     36 H12        -7.9387    0.6919    4.7025 H         1 <0>         0.2421
     37 H13        -7.0265    2.7819    4.5417 H         1 <0>         0.1662
     38 H14       -10.6262    1.5236    4.5415 H         1 <0>         0.1318
     39 H15       -10.3817    0.7120    6.1066 H         1 <0>         0.1404
     40 H16       -12.3473    2.1635    6.2562 H         1 <0>         0.0963
     41 H17       -11.0444    2.8430    7.2605 H         1 <0>         0.0685
     42 H18       -12.0327    4.4959    5.8473 H         1 <0>         0.4050
     43 N2         -9.0014    2.3052    5.7051 N.pl3     1 <0>        -0.6094
     44 H19        -8.8994    3.2186    6.1629 H         1 <0>         0.4555
@<TRIPOS>BOND
     1    1    2 1
     2    1   25 1
     3    1   26 1
     4    1   27 1
     5    2    3 1
     6    3    8 ar
     7    3    4 ar
     8    4    5 ar
     9    4   28 1
    10    5    6 ar
    11    5   29 1
    12    6    7 ar
    13    6   30 1
    14    7    8 ar
    15    7    9 1
    16    8   31 1
    17    9   23 am
    18    9   10 am
    19   10   11 2
    20   10   12 1
    21   12   17 ar
    22   12   13 ar
    23   13   14 ar
    24   13   32 1
    25   14   15 ar
    26   14   33 1
    27   15   16 ar
    28   15   34 1
    29   16   17 ar
    30   16   35 1
    31   17   18 1
    32   18   23 1
    33   18   37 1
    34   18   19 1
    35   19   36 1
    36   19   43 2
    37   20   21 1
    38   20   38 1
    39   20   39 1
    40   20   43 1
    41   21   22 1
    42   21   40 1
    43   21   41 1
    44   22   42 1
    45   23   24 2
    46   43   44 1
@<TRIPOS>MOLECULE
ZINC02445406
   55    58     0     0     0
SMALL
USER_CHARGES
2-diethylamino-1-[2-(2-naphthyl)-4-quinolyl]-ethanol
@<TRIPOS>ATOM
      1 C1          7.0053   11.3096   -1.5429 C.3       1 <0>        -0.1912
      2 C2          5.8645   11.9318   -0.7352 C.3       1 <0>        -0.0175
      3 C3          4.5056   12.0745   -2.7341 C.3       1 <0>        -0.0127
      4 C4          4.3757   13.5990   -2.7241 C.3       1 <0>        -0.1881
      5 C5          4.3482   10.1304   -1.2995 C.3       1 <0>        -0.0450
      6 C6          4.1837    9.6933    0.1575 C.3       1 <0>         0.1329
      7 H1          5.0504   10.0170    0.7339 H         1 <0>         0.1364
      8 C7          4.0699    8.1920    0.2218 C.ar      1 <0>        -0.0806
      9 C8          2.8501    7.5838    0.2474 C.ar      1 <0>        -0.1376
     10 C9          2.7687    6.1837    0.3069 C.ar      1 <0>         0.2138
     11 N1          3.8520    5.4313    0.3445 N.ar      1 <0>        -0.4543
     12 C10         5.0726    5.9723    0.3163 C.ar      1 <0>         0.1409
     13 C11         5.2214    7.3809    0.2565 C.ar      1 <0>        -0.0925
     14 C12         6.5081    7.9414    0.2334 C.ar      1 <0>        -0.1253
     15 C13         7.5987    7.1266    0.2678 C.ar      1 <0>        -0.0928
     16 C14         7.4552    5.7418    0.3266 C.ar      1 <0>        -0.0978
     17 C15         6.2234    5.1641    0.3509 C.ar      1 <0>        -0.0796
     18 C16         1.4356    5.5361    0.3342 C.ar      1 <0>        -0.0747
     19 C17         0.2757    6.3279    0.3008 C.ar      1 <0>        -0.1027
     20 C18        -0.9570    5.7591    0.3247 C.ar      1 <0>        -0.1019
     21 C19        -1.0844    4.3594    0.3836 C.ar      1 <0>        -0.0384
     22 C20        -2.3486    3.7469    0.4088 C.ar      1 <0>        -0.1129
     23 C21        -2.4399    2.3897    0.4607 C.ar      1 <0>        -0.1015
     24 C22        -1.2962    1.5943    0.5002 C.ar      1 <0>        -0.1131
     25 C23        -0.0548    2.1515    0.4773 C.ar      1 <0>        -0.0993
     26 C24         0.0793    3.5502    0.4183 C.ar      1 <0>        -0.0612
     27 C25         1.3442    4.1576    0.3927 C.ar      1 <0>        -0.0415
     28 O1          3.0020   10.2844    0.7017 O.3       1 <0>        -0.5417
     29 H2          7.9498   11.4753   -1.0248 H         1 <0>         0.1092
     30 H3          6.8327   10.2387   -1.6501 H         1 <0>         0.0790
     31 H4          7.0461   11.7715   -2.5294 H         1 <0>         0.0845
     32 H5          5.9773   13.0159   -0.7228 H         1 <0>         0.1348
     33 H6          5.8930   11.5518    0.2860 H         1 <0>         0.1276
     34 H7          5.4113   11.7906   -3.2701 H         1 <0>         0.1337
     35 H8          3.6382   11.6392   -3.2303 H         1 <0>         0.1284
     36 H9          3.4843   13.8840   -2.1653 H         1 <0>         0.0811
     37 H10         5.2557   14.0355   -2.2517 H         1 <0>         0.0804
     38 H11         4.2946   13.9635   -3.7481 H         1 <0>         0.1071
     39 H12         5.1985    9.6108   -1.7409 H         1 <0>         0.1463
     40 H13         3.4437    9.8857   -1.8565 H         1 <0>         0.1380
     41 H14         1.9484    8.1778    0.2217 H         1 <0>         0.1422
     42 H15         6.6326    9.0133    0.1875 H         1 <0>         0.1210
     43 H16         8.5880    7.5594    0.2493 H         1 <0>         0.1340
     44 H17         8.3358    5.1169    0.3530 H         1 <0>         0.1391
     45 H18         6.1296    4.0892    0.3969 H         1 <0>         0.1438
     46 H19         0.3656    7.4033    0.2559 H         1 <0>         0.1228
     47 H20        -1.8395    6.3811    0.2981 H         1 <0>         0.1335
     48 H21        -3.2441    4.3501    0.3825 H         1 <0>         0.1311
     49 H22        -3.4134    1.9224    0.4759 H         1 <0>         0.1286
     50 H23        -1.3965    0.5199    0.5452 H         1 <0>         0.1289
     51 H24         0.8229    1.5227    0.5047 H         1 <0>         0.1314
     52 H25         2.2389    3.5533    0.4189 H         1 <0>         0.1420
     53 H26         2.1900   10.0396    0.2370 H         1 <0>         0.3897
     54 N2          4.5580   11.5930   -1.3377 N.4       1 <0>        -0.3919
     55 H27         3.8135   12.0509   -0.7988 H         1 <0>         0.4336
@<TRIPOS>BOND
     1    1    2 1
     2    1   29 1
     3    1   30 1
     4    1   31 1
     5    2   32 1
     6    2   33 1
     7    2   54 1
     8    3    4 1
     9    3   34 1
    10    3   35 1
    11    3   54 1
    12    4   36 1
    13    4   37 1
    14    4   38 1
    15    5    6 1
    16    5   39 1
    17    5   40 1
    18    5   54 1
    19    6    7 1
    20    6    8 1
    21    6   28 1
    22    8   13 ar
    23    8    9 ar
    24    9   10 ar
    25    9   41 1
    26   10   11 ar
    27   10   18 1
    28   11   12 ar
    29   12   17 ar
    30   12   13 ar
    31   13   14 ar
    32   14   15 ar
    33   14   42 1
    34   15   16 ar
    35   15   43 1
    36   16   17 ar
    37   16   44 1
    38   17   45 1
    39   18   27 ar
    40   18   19 ar
    41   19   20 ar
    42   19   46 1
    43   20   21 ar
    44   20   47 1
    45   21   26 ar
    46   21   22 ar
    47   22   23 ar
    48   22   48 1
    49   23   24 ar
    50   23   49 1
    51   24   25 ar
    52   24   50 1
    53   25   26 ar
    54   25   51 1
    55   26   27 ar
    56   27   52 1
    57   28   53 1
    58   54   55 1
@<TRIPOS>MOLECULE
ZINC02237076
   55    58     0     0     0
SMALL
USER_CHARGES
2-diethylamino-1-[2-(2-naphthyl)-4-quinolyl]-ethanol
@<TRIPOS>ATOM
      1 C1          7.0053   11.3096   -1.5429 C.3       1 <0>        -0.1912
      2 C2          5.8645   11.9318   -0.7352 C.3       1 <0>        -0.0175
      3 C3          4.5056   12.0745   -2.7341 C.3       1 <0>        -0.0127
      4 C4          4.3757   13.5990   -2.7241 C.3       1 <0>        -0.1881
      5 C5          4.3482   10.1304   -1.2995 C.3       1 <0>        -0.0450
      6 C6          4.1837    9.6933    0.1575 C.3       1 <0>         0.1329
      7 H1          5.0504   10.0170    0.7339 H         1 <0>         0.1364
      8 C7          4.0699    8.1920    0.2218 C.ar      1 <0>        -0.0806
      9 C8          2.8501    7.5838    0.2474 C.ar      1 <0>        -0.1376
     10 C9          2.7687    6.1837    0.3069 C.ar      1 <0>         0.2138
     11 N1          3.8520    5.4313    0.3445 N.ar      1 <0>        -0.4543
     12 C10         5.0726    5.9723    0.3163 C.ar      1 <0>         0.1409
     13 C11         5.2214    7.3809    0.2565 C.ar      1 <0>        -0.0925
     14 C12         6.5081    7.9414    0.2334 C.ar      1 <0>        -0.1253
     15 C13         7.5987    7.1266    0.2678 C.ar      1 <0>        -0.0928
     16 C14         7.4552    5.7418    0.3266 C.ar      1 <0>        -0.0978
     17 C15         6.2234    5.1641    0.3509 C.ar      1 <0>        -0.0796
     18 C16         1.4356    5.5361    0.3342 C.ar      1 <0>        -0.0747
     19 C17         0.2757    6.3279    0.3008 C.ar      1 <0>        -0.1027
     20 C18        -0.9570    5.7591    0.3247 C.ar      1 <0>        -0.1019
     21 C19        -1.0844    4.3594    0.3836 C.ar      1 <0>        -0.0384
     22 C20        -2.3486    3.7469    0.4088 C.ar      1 <0>        -0.1129
     23 C21        -2.4399    2.3897    0.4607 C.ar      1 <0>        -0.1015
     24 C22        -1.2962    1.5943    0.5002 C.ar      1 <0>        -0.1131
     25 C23        -0.0548    2.1515    0.4773 C.ar      1 <0>        -0.0993
     26 C24         0.0793    3.5502    0.4183 C.ar      1 <0>        -0.0612
     27 C25         1.3442    4.1576    0.3927 C.ar      1 <0>        -0.0415
     28 O1          3.0020   10.2844    0.7017 O.3       1 <0>        -0.5417
     29 H2          7.9498   11.4753   -1.0248 H         1 <0>         0.1092
     30 H3          6.8327   10.2387   -1.6501 H         1 <0>         0.0790
     31 H4          7.0461   11.7715   -2.5294 H         1 <0>         0.0845
     32 H5          5.9773   13.0159   -0.7228 H         1 <0>         0.1348
     33 H6          5.8930   11.5518    0.2860 H         1 <0>         0.1276
     34 H7          5.4113   11.7906   -3.2701 H         1 <0>         0.1337
     35 H8          3.6382   11.6392   -3.2303 H         1 <0>         0.1284
     36 H9          3.4843   13.8840   -2.1653 H         1 <0>         0.0811
     37 H10         5.2557   14.0355   -2.2517 H         1 <0>         0.0804
     38 H11         4.2946   13.9635   -3.7481 H         1 <0>         0.1071
     39 H12         5.1985    9.6108   -1.7409 H         1 <0>         0.1463
     40 H13         3.4437    9.8857   -1.8565 H         1 <0>         0.1380
     41 H14         1.9484    8.1778    0.2217 H         1 <0>         0.1422
     42 H15         6.6326    9.0133    0.1875 H         1 <0>         0.1210
     43 H16         8.5880    7.5594    0.2493 H         1 <0>         0.1340
     44 H17         8.3358    5.1169    0.3530 H         1 <0>         0.1391
     45 H18         6.1296    4.0892    0.3969 H         1 <0>         0.1438
     46 H19         0.3656    7.4033    0.2559 H         1 <0>         0.1228
     47 H20        -1.8395    6.3811    0.2981 H         1 <0>         0.1335
     48 H21        -3.2441    4.3501    0.3825 H         1 <0>         0.1311
     49 H22        -3.4134    1.9224    0.4759 H         1 <0>         0.1286
     50 H23        -1.3965    0.5199    0.5452 H         1 <0>         0.1289
     51 H24         0.8229    1.5227    0.5047 H         1 <0>         0.1314
     52 H25         2.2389    3.5533    0.4189 H         1 <0>         0.1420
     53 H26         2.1900   10.0396    0.2370 H         1 <0>         0.3897
     54 N2          4.5580   11.5930   -1.3377 N.4       1 <0>        -0.3919
     55 H27         3.8135   12.0509   -0.7988 H         1 <0>         0.4336
@<TRIPOS>BOND
     1    1    2 1
     2    1   29 1
     3    1   30 1
     4    1   31 1
     5    2   32 1
     6    2   33 1
     7    2   54 1
     8    3    4 1
     9    3   34 1
    10    3   35 1
    11    3   54 1
    12    4   36 1
    13    4   37 1
    14    4   38 1
    15    5    6 1
    16    5   39 1
    17    5   40 1
    18    5   54 1
    19    6    7 1
    20    6    8 1
    21    6   28 1
    22    8   13 ar
    23    8    9 ar
    24    9   10 ar
    25    9   41 1
    26   10   11 ar
    27   10   18 1
    28   11   12 ar
    29   12   17 ar
    30   12   13 ar
    31   13   14 ar
    32   14   15 ar
    33   14   42 1
    34   15   16 ar
    35   15   43 1
    36   16   17 ar
    37   16   44 1
    38   17   45 1
    39   18   27 ar
    40   18   19 ar
    41   19   20 ar
    42   19   46 1
    43   20   21 ar
    44   20   47 1
    45   21   26 ar
    46   21   22 ar
    47   22   23 ar
    48   22   48 1
    49   23   24 ar
    50   23   49 1
    51   24   25 ar
    52   24   50 1
    53   25   26 ar
    54   25   51 1
    55   26   27 ar
    56   27   52 1
    57   28   53 1
    58   54   55 1
@<TRIPOS>MOLECULE
ZINC02237669
   32    34     0     0     0
SMALL
USER_CHARGES
4-methoxy-N-(3-oxo-2,6,7,9-tetrazabicyclo[4.3.0]nona-4,7,9-trien-5-yl)-benzamide
@<TRIPOS>ATOM
      1 C1          4.7609    0.1463   -0.0324 C.3       1 <0>         0.0226
      2 O1          3.5703   -0.6420    0.0237 O.3       1 <0>        -0.3097
      3 C2          2.3891    0.0261    0.0359 C.ar      1 <0>         0.1650
      4 C3          1.1935   -0.6808    0.0898 C.ar      1 <0>        -0.1589
      5 C4         -0.0071   -0.0068    0.1019 C.ar      1 <0>        -0.0092
      6 C5         -0.0225    1.3902    0.0605 C.ar      1 <0>        -0.1807
      7 C6          1.1820    2.0972    0.0068 C.ar      1 <0>        -0.0391
      8 C7          2.3783    1.4155   -0.0049 C.ar      1 <0>        -0.2167
      9 C8         -1.3067    2.1163    0.0671 C.2       1 <0>         0.5749
     10 O2         -2.3535    1.4995    0.1087 O.2       1 <0>        -0.4915
     11 N1         -1.3194    3.4634    0.0271 N.am      1 <0>        -0.6757
     12 C9         -2.5171    4.1387   -0.0676 C.2       1 <0>         0.4523
     13 C10        -2.7399    4.9937   -1.1040 C.2       1 <0>        -0.2624
     14 C11        -3.9690    5.6728   -1.1908 C.2       1 <0>         0.5636
     15 O3         -4.1803    6.4369   -2.1172 O.2       1 <0>        -0.5038
     16 N2         -4.9108    5.4810   -0.2459 N.am      1 <0>        -0.6086
     17 H1         -5.7832    5.9662   -0.3056 H         1 <0>         0.4453
     18 C12        -4.6749    4.6184    0.8018 C.2       1 <0>         0.5151
     19 N3         -3.4899    3.9563    0.8870 N.pl3     1 <0>        -0.3509
     20 N4         -3.5579    3.1695    2.0453 N.2       1 <0>        -0.2848
     21 C13        -4.7307    3.3841    2.5826 C.2       1 <0>         0.2522
     22 N5         -5.4062    4.2567    1.8357 N.2       1 <0>        -0.5378
     23 H2          4.8041    0.8016    0.8375 H         1 <0>         0.0603
     24 H3          5.6312   -0.5100   -0.0365 H         1 <0>         0.1058
     25 H4          4.7556    0.7483   -0.9410 H         1 <0>         0.0605
     26 H5          1.2062   -1.7603    0.1218 H         1 <0>         0.1432
     27 H6         -0.9356   -0.5568    0.1438 H         1 <0>         0.1462
     28 H7          1.1744    3.1767   -0.0257 H         1 <0>         0.1295
     29 H8          3.3094    1.9611   -0.0464 H         1 <0>         0.1391
     30 H9         -0.4856    3.9576    0.0650 H         1 <0>         0.4267
     31 H10        -1.9799    5.1465   -1.8559 H         1 <0>         0.1902
     32 H11        -5.0948    2.9259    3.4902 H         1 <0>         0.2374
@<TRIPOS>BOND
     1    1    2 1
     2    1   23 1
     3    1   24 1
     4    1   25 1
     5    2    3 1
     6    3    8 ar
     7    3    4 ar
     8    4    5 ar
     9    4   26 1
    10    5    6 ar
    11    5   27 1
    12    6    7 ar
    13    6    9 1
    14    7    8 ar
    15    7   28 1
    16    8   29 1
    17    9   10 2
    18    9   11 am
    19   11   12 1
    20   11   30 1
    21   12   19 1
    22   12   13 2
    23   13   14 1
    24   13   31 1
    25   14   15 2
    26   14   16 am
    27   16   17 1
    28   16   18 1
    29   18   22 2
    30   18   19 1
    31   19   20 1
    32   20   21 2
    33   21   22 1
    34   21   32 1
@<TRIPOS>MOLECULE
ZINC02239185
   45    47     0     0     0
SMALL
USER_CHARGES
N-[(2-hydroxy-6-methyl-3-quinolyl)methyl]-N-(2-methoxyethyl)furan-2-carboxamide
@<TRIPOS>ATOM
      1 C1          4.4237    4.6457    1.9690 C.3       1 <0>        -0.1164
      2 C2          3.1996    3.8482    1.5991 C.ar      1 <0>        -0.0933
      3 C3          1.9664    4.4883    1.4991 C.ar      1 <0>        -0.0826
      4 C4          0.8414    3.7970    1.1681 C.ar      1 <0>        -0.1012
      5 C5          0.9191    2.4158    0.9197 C.ar      1 <0>         0.1703
      6 C6          2.1741    1.7673    1.0215 C.ar      1 <0>        -0.1306
      7 C7          3.3134    2.5112    1.3666 C.ar      1 <0>        -0.0847
      8 C8          2.2522    0.3825    0.7730 C.ar      1 <0>        -0.0008
      9 C9          1.1072   -0.2794    0.4419 C.ar      1 <0>        -0.2302
     10 C10        -0.1028    0.4196    0.3562 C.ar      1 <0>         0.3690
     11 N1         -0.1701    1.7124    0.5909 N.ar      1 <0>        -0.4957
     12 O1         -1.2331   -0.2523    0.0263 O.3       1 <0>        -0.4525
     13 C11         1.1441   -1.7606    0.1670 C.3       1 <0>         0.1340
     14 N2          0.6988   -2.4894    1.3573 N.am      1 <0>        -0.6075
     15 C12        -0.7168   -2.8289    1.5212 C.3       1 <0>         0.1030
     16 C13        -0.9886   -4.1983    0.8950 C.3       1 <0>         0.0400
     17 O2         -0.2729   -5.2027    1.6167 O.3       1 <0>        -0.3749
     18 C14        -0.4590   -6.5260    1.1102 C.3       1 <0>         0.0311
     19 C15         1.5915   -2.8475    2.3014 C.2       1 <0>         0.6124
     20 O3          1.2093   -3.3609    3.3364 O.2       1 <0>        -0.4918
     21 C16         3.0231   -2.6182    2.0816 C.2       1 <0>        -0.0782
     22 C17         4.0174   -2.8178    2.9959 C.2       1 <0>        -0.1130
     23 C18         5.2223   -2.4749    2.3630 C.2       1 <0>        -0.2159
     24 C19         4.9147   -2.0857    1.1061 C.2       1 <0>        -0.0194
     25 O4          3.5893   -2.1786    0.9385 O.3       1 <0>        -0.1655
     26 H1          4.8967    5.0262    1.0637 H         1 <0>         0.0733
     27 H2          4.1341    5.4813    2.6062 H         1 <0>         0.0696
     28 H3          5.1256    4.0065    2.5046 H         1 <0>         0.0680
     29 H4          1.9016    5.5498    1.6878 H         1 <0>         0.1329
     30 H5         -0.1071    4.3083    1.0953 H         1 <0>         0.1387
     31 H6          4.2751    2.0262    1.4465 H         1 <0>         0.1295
     32 H7          3.1943   -0.1408    0.8429 H         1 <0>         0.1454
     33 H8         -1.0166   -1.2177   -0.1193 H         1 <0>         0.3976
     34 H9          0.4837   -1.9916   -0.6688 H         1 <0>         0.0936
     35 H10         2.1627   -2.0587   -0.0816 H         1 <0>         0.1259
     36 H11        -0.9625   -2.8597    2.5827 H         1 <0>         0.1066
     37 H12        -1.3308   -2.0755    1.0278 H         1 <0>         0.0961
     38 H13        -2.0567   -4.4117    0.9376 H         1 <0>         0.0663
     39 H14        -0.6603   -4.1941   -0.1445 H         1 <0>         0.0527
     40 H15        -0.1196   -6.5701    0.0754 H         1 <0>         0.0393
     41 H16         0.1168   -7.2294    1.7118 H         1 <0>         0.0864
     42 H17        -1.5160   -6.7878    1.1574 H         1 <0>         0.0422
     43 H18         3.8995   -3.1709    4.0097 H         1 <0>         0.1609
     44 H19         6.2098   -2.5144    2.7988 H         1 <0>         0.1584
     45 H20         5.6219   -1.7585    0.3582 H         1 <0>         0.2113
@<TRIPOS>BOND
     1    1    2 1
     2    1   26 1
     3    1   27 1
     4    1   28 1
     5    2    7 ar
     6    2    3 ar
     7    3    4 ar
     8    3   29 1
     9    4    5 ar
    10    4   30 1
    11    5    6 ar
    12    5   11 ar
    13    6    7 ar
    14    6    8 ar
    15    7   31 1
    16    8   32 1
    17    8    9 ar
    18    9   13 1
    19    9   10 ar
    20   10   11 ar
    21   10   12 1
    22   12   33 1
    23   13   14 1
    24   13   34 1
    25   13   35 1
    26   14   15 1
    27   14   19 am
    28   15   16 1
    29   15   36 1
    30   15   37 1
    31   16   17 1
    32   16   38 1
    33   16   39 1
    34   17   18 1
    35   18   40 1
    36   18   41 1
    37   18   42 1
    38   19   20 2
    39   19   21 1
    40   21   25 1
    41   21   22 2
    42   22   23 1
    43   22   43 1
    44   23   24 2
    45   23   44 1
    46   24   25 1
    47   24   45 1
@<TRIPOS>MOLECULE
ZINC02239217
   28    30     0     0     0
SMALL
USER_CHARGES
2-chloro-N-(3-oxo-2,6,7,9-tetrazabicyclo[4.3.0]nona-4,7,9-trien-5-yl)-benzamide
@<TRIPOS>ATOM
      1 C1         -1.3052    7.5515    0.3742 C.ar      1 <0>        -0.1218
      2 C2         -0.7101    8.7968    0.4800 C.ar      1 <0>        -0.0722
      3 C3          0.6675    8.9155    0.4685 C.ar      1 <0>        -0.1188
      4 C4          1.4596    7.7898    0.3507 C.ar      1 <0>         0.0196
      5 C5          0.8649    6.5300    0.2436 C.ar      1 <0>        -0.1345
      6 C6         -0.5274    6.4196    0.2507 C.ar      1 <0>        -0.0721
      7 C7          1.7044    5.3214    0.1173 C.2       1 <0>         0.5637
      8 O1          2.9157    5.4212    0.1064 O.2       1 <0>        -0.4645
      9 N1          1.1273    4.1078    0.0142 N.am      1 <0>        -0.6742
     10 C8          1.9086    2.9725   -0.0033 C.2       1 <0>         0.4529
     11 C9          1.7198    1.9981    0.9293 C.2       1 <0>        -0.2613
     12 C10         2.5242    0.8441    0.8994 C.2       1 <0>         0.5636
     13 O2          2.3630   -0.0342    1.7295 O.2       1 <0>        -0.5035
     14 N2          3.4733    0.7112   -0.0484 N.am      1 <0>        -0.6087
     15 H1          4.0456   -0.1086   -0.0695 H         1 <0>         0.4452
     16 C11         3.6570    1.7015   -0.9880 C.2       1 <0>         0.5153
     17 N3          2.8816    2.8186   -0.9627 N.pl3     1 <0>        -0.3508
     18 N4          3.3077    3.6212   -2.0302 N.2       1 <0>        -0.2836
     19 C12         4.2791    2.9787   -2.6249 C.2       1 <0>         0.2523
     20 N5          4.4921    1.8216   -1.9993 N.2       1 <0>        -0.5376
     21 Cl1         3.1890    7.9401    0.3352 Cl        1 <0>        -0.0242
     22 H2         -2.3818    7.4666    0.3836 H         1 <0>         0.1404
     23 H3         -1.3248    9.6801    0.5716 H         1 <0>         0.1416
     24 H4          1.1252    9.8902    0.5514 H         1 <0>         0.1445
     25 H5         -0.9937    5.4494    0.1638 H         1 <0>         0.1351
     26 H6          0.1622    4.0333   -0.0477 H         1 <0>         0.4263
     27 H7          0.9577    2.1102    1.6863 H         1 <0>         0.1902
     28 H8          4.8240    3.3311   -3.4882 H         1 <0>         0.2369
@<TRIPOS>BOND
     1    1    6 ar
     2    1    2 ar
     3    1   22 1
     4    2    3 ar
     5    2   23 1
     6    3    4 ar
     7    3   24 1
     8    4    5 ar
     9    4   21 1
    10    5    6 ar
    11    5    7 1
    12    6   25 1
    13    7    8 2
    14    7    9 am
    15    9   10 1
    16    9   26 1
    17   10   17 1
    18   10   11 2
    19   11   12 1
    20   11   27 1
    21   12   13 2
    22   12   14 am
    23   14   15 1
    24   14   16 1
    25   16   20 2
    26   16   17 1
    27   17   18 1
    28   18   19 2
    29   19   20 1
    30   19   28 1
@<TRIPOS>MOLECULE
ZINC02239328
   55    58     0     0     0
SMALL
USER_CHARGES
2-diethylamino-1-[2-(2-naphthyl)-4-quinolyl]-ethanol
@<TRIPOS>ATOM
      1 C1          7.0053   11.3096   -1.5429 C.3       1 <0>        -0.1912
      2 C2          5.8645   11.9318   -0.7352 C.3       1 <0>        -0.0175
      3 C3          4.5056   12.0745   -2.7341 C.3       1 <0>        -0.0127
      4 C4          4.3757   13.5990   -2.7241 C.3       1 <0>        -0.1881
      5 C5          4.3482   10.1304   -1.2995 C.3       1 <0>        -0.0450
      6 C6          4.1837    9.6933    0.1575 C.3       1 <0>         0.1329
      7 H1          5.0504   10.0170    0.7339 H         1 <0>         0.1364
      8 C7          4.0699    8.1920    0.2218 C.ar      1 <0>        -0.0806
      9 C8          2.8501    7.5838    0.2474 C.ar      1 <0>        -0.1376
     10 C9          2.7687    6.1837    0.3069 C.ar      1 <0>         0.2138
     11 N1          3.8520    5.4313    0.3445 N.ar      1 <0>        -0.4543
     12 C10         5.0726    5.9723    0.3163 C.ar      1 <0>         0.1409
     13 C11         5.2214    7.3809    0.2565 C.ar      1 <0>        -0.0925
     14 C12         6.5081    7.9414    0.2334 C.ar      1 <0>        -0.1253
     15 C13         7.5987    7.1266    0.2678 C.ar      1 <0>        -0.0928
     16 C14         7.4552    5.7418    0.3266 C.ar      1 <0>        -0.0978
     17 C15         6.2234    5.1641    0.3509 C.ar      1 <0>        -0.0796
     18 C16         1.4356    5.5361    0.3342 C.ar      1 <0>        -0.0747
     19 C17         0.2757    6.3279    0.3008 C.ar      1 <0>        -0.1027
     20 C18        -0.9570    5.7591    0.3247 C.ar      1 <0>        -0.1019
     21 C19        -1.0844    4.3594    0.3836 C.ar      1 <0>        -0.0384
     22 C20        -2.3486    3.7469    0.4088 C.ar      1 <0>        -0.1129
     23 C21        -2.4399    2.3897    0.4607 C.ar      1 <0>        -0.1015
     24 C22        -1.2962    1.5943    0.5002 C.ar      1 <0>        -0.1131
     25 C23        -0.0548    2.1515    0.4773 C.ar      1 <0>        -0.0993
     26 C24         0.0793    3.5502    0.4183 C.ar      1 <0>        -0.0612
     27 C25         1.3442    4.1576    0.3927 C.ar      1 <0>        -0.0415
     28 O1          3.0020   10.2844    0.7017 O.3       1 <0>        -0.5417
     29 H2          7.9498   11.4753   -1.0248 H         1 <0>         0.1092
     30 H3          6.8327   10.2387   -1.6501 H         1 <0>         0.0790
     31 H4          7.0461   11.7715   -2.5294 H         1 <0>         0.0845
     32 H5          5.9773   13.0159   -0.7228 H         1 <0>         0.1348
     33 H6          5.8930   11.5518    0.2860 H         1 <0>         0.1276
     34 H7          5.4113   11.7906   -3.2701 H         1 <0>         0.1337
     35 H8          3.6382   11.6392   -3.2303 H         1 <0>         0.1284
     36 H9          3.4843   13.8840   -2.1653 H         1 <0>         0.0811
     37 H10         5.2557   14.0355   -2.2517 H         1 <0>         0.0804
     38 H11         4.2946   13.9635   -3.7481 H         1 <0>         0.1071
     39 H12         5.1985    9.6108   -1.7409 H         1 <0>         0.1463
     40 H13         3.4437    9.8857   -1.8565 H         1 <0>         0.1380
     41 H14         1.9484    8.1778    0.2217 H         1 <0>         0.1422
     42 H15         6.6326    9.0133    0.1875 H         1 <0>         0.1210
     43 H16         8.5880    7.5594    0.2493 H         1 <0>         0.1340
     44 H17         8.3358    5.1169    0.3530 H         1 <0>         0.1391
     45 H18         6.1296    4.0892    0.3969 H         1 <0>         0.1438
     46 H19         0.3656    7.4033    0.2559 H         1 <0>         0.1228
     47 H20        -1.8395    6.3811    0.2981 H         1 <0>         0.1335
     48 H21        -3.2441    4.3501    0.3825 H         1 <0>         0.1311
     49 H22        -3.4134    1.9224    0.4759 H         1 <0>         0.1286
     50 H23        -1.3965    0.5199    0.5452 H         1 <0>         0.1289
     51 H24         0.8229    1.5227    0.5047 H         1 <0>         0.1314
     52 H25         2.2389    3.5533    0.4189 H         1 <0>         0.1420
     53 H26         2.1900   10.0396    0.2370 H         1 <0>         0.3897
     54 N2          4.5580   11.5930   -1.3377 N.4       1 <0>        -0.3919
     55 H27         3.8135   12.0509   -0.7988 H         1 <0>         0.4336
@<TRIPOS>BOND
     1    1    2 1
     2    1   29 1
     3    1   30 1
     4    1   31 1
     5    2   32 1
     6    2   33 1
     7    2   54 1
     8    3    4 1
     9    3   34 1
    10    3   35 1
    11    3   54 1
    12    4   36 1
    13    4   37 1
    14    4   38 1
    15    5    6 1
    16    5   39 1
    17    5   40 1
    18    5   54 1
    19    6    7 1
    20    6    8 1
    21    6   28 1
    22    8   13 ar
    23    8    9 ar
    24    9   10 ar
    25    9   41 1
    26   10   11 ar
    27   10   18 1
    28   11   12 ar
    29   12   17 ar
    30   12   13 ar
    31   13   14 ar
    32   14   15 ar
    33   14   42 1
    34   15   16 ar
    35   15   43 1
    36   16   17 ar
    37   16   44 1
    38   17   45 1
    39   18   27 ar
    40   18   19 ar
    41   19   20 ar
    42   19   46 1
    43   20   21 ar
    44   20   47 1
    45   21   26 ar
    46   21   22 ar
    47   22   23 ar
    48   22   48 1
    49   23   24 ar
    50   23   49 1
    51   24   25 ar
    52   24   50 1
    53   25   26 ar
    54   25   51 1
    55   26   27 ar
    56   27   52 1
    57   28   53 1
    58   54   55 1
@<TRIPOS>MOLECULE
ZINC02240893
   45    47     0     0     0
SMALL
USER_CHARGES
N-(2-furylmethyl)-N-[(2-hydroxy-6-methyl-3-quinolyl)methyl]-2-methoxy-acetamide
@<TRIPOS>ATOM
      1 C1          6.5581    3.1452   -4.1773 C.3       1 <0>        -0.1155
      2 C2          5.0816    2.9562   -4.4123 C.ar      1 <0>        -0.0984
      3 C3          4.6223    2.6544   -5.6924 C.ar      1 <0>        -0.0819
      4 C4          3.2927    2.5007   -5.9431 C.ar      1 <0>        -0.1039
      5 C5          2.3688    2.5991   -4.8884 C.ar      1 <0>         0.1758
      6 C6          2.8386    2.9003   -3.5866 C.ar      1 <0>        -0.1385
      7 C7          4.2136    3.0824   -3.3704 C.ar      1 <0>        -0.0835
      8 C8          1.9108    3.0112   -2.5318 C.ar      1 <0>        -0.0034
      9 C9          0.5912    2.8112   -2.8095 C.ar      1 <0>        -0.2366
     10 C10         0.1940    2.4826   -4.1116 C.ar      1 <0>         0.3789
     11 N1          1.0610    2.4129   -5.0988 N.ar      1 <0>        -0.5040
     12 O1         -1.1208    2.2763   -4.3702 O.3       1 <0>        -0.4580
     13 C11        -0.4359    2.9200   -1.7119 C.3       1 <0>         0.1483
     14 N2         -0.7094    1.5885   -1.1654 N.am      1 <0>        -0.6059
     15 C12         0.1712    1.0222   -0.1409 C.3       1 <0>         0.1871
     16 C13        -0.2491    1.5245    1.2164 C.2       1 <0>        -0.0472
     17 C14        -1.1413    0.9343    2.0320 C.2       1 <0>        -0.1873
     18 C15        -1.2311    1.7387    3.1912 C.2       1 <0>        -0.2144
     19 C16        -0.3884    2.7722    3.0147 C.2       1 <0>        -0.0253
     20 O2          0.2079    2.6342    1.8193 O.3       1 <0>        -0.1709
     21 C17        -1.7714    0.8848   -1.6052 C.2       1 <0>         0.5242
     22 O3         -2.5004    1.3537   -2.4535 O.2       1 <0>        -0.5022
     23 C18        -2.0529   -0.4849   -1.0431 C.3       1 <0>         0.0427
     24 O4         -3.2222   -1.0231   -1.6633 O.3       1 <0>        -0.3630
     25 C19        -3.5788   -2.3267   -1.1987 C.3       1 <0>         0.0283
     26 H1          7.0103    2.1876   -3.9189 H         1 <0>         0.0720
     27 H2          7.0233    3.5342   -5.0829 H         1 <0>         0.0687
     28 H3          6.7085    3.8503   -3.3598 H         1 <0>         0.0674
     29 H4          5.3302    2.5593   -6.5023 H         1 <0>         0.1315
     30 H5          2.9510    2.2855   -6.9447 H         1 <0>         0.1378
     31 H6          4.5816    3.3162   -2.3824 H         1 <0>         0.1293
     32 H7          2.2365    3.2484   -1.5299 H         1 <0>         0.1434
     33 H8         -1.6447    2.3630   -3.5228 H         1 <0>         0.4075
     34 H9         -1.3556    3.3431   -2.1157 H         1 <0>         0.1014
     35 H10        -0.0553    3.5663   -0.9209 H         1 <0>         0.1077
     36 H11         0.1021   -0.0655   -0.1632 H         1 <0>         0.1168
     37 H12         1.1996    1.3249   -0.3379 H         1 <0>         0.1041
     38 H13        -1.6851    0.0217    1.8383 H         1 <0>         0.1475
     39 H14        -1.8566    1.5583    4.0530 H         1 <0>         0.1517
     40 H15        -0.2167    3.5743    3.7173 H         1 <0>         0.2063
     41 H16        -1.2037   -1.1396   -1.2389 H         1 <0>         0.0865
     42 H17        -2.2136   -0.4102    0.0324 H         1 <0>         0.0861
     43 H18        -2.7613   -3.0196   -1.3978 H         1 <0>         0.0466
     44 H19        -3.7712   -2.2902   -0.1265 H         1 <0>         0.0461
     45 H20        -4.4759   -2.6645   -1.7176 H         1 <0>         0.0961
@<TRIPOS>BOND
     1    1    2 1
     2    1   26 1
     3    1   27 1
     4    1   28 1
     5    2    7 ar
     6    2    3 ar
     7    3    4 ar
     8    3   29 1
     9    4    5 ar
    10    4   30 1
    11    5    6 ar
    12    5   11 ar
    13    6    7 ar
    14    6    8 ar
    15    7   31 1
    16    8   32 1
    17    8    9 ar
    18    9   13 1
    19    9   10 ar
    20   10   11 ar
    21   10   12 1
    22   12   33 1
    23   13   14 1
    24   13   34 1
    25   13   35 1
    26   14   15 1
    27   14   21 am
    28   15   16 1
    29   15   36 1
    30   15   37 1
    31   16   20 1
    32   16   17 2
    33   17   18 1
    34   17   38 1
    35   18   19 2
    36   18   39 1
    37   19   20 1
    38   19   40 1
    39   21   22 2
    40   21   23 1
    41   23   24 1
    42   23   41 1
    43   23   42 1
    44   24   25 1
    45   25   43 1
    46   25   44 1
    47   25   45 1
@<TRIPOS>MOLECULE
ZINC05343396
   41    42     0     0     0
SMALL
USER_CHARGES
3-butyl-6-hydroxy-5-(3-phenylprop-2-enoyl)-1H-pyrimidine-2,4-dione
@<TRIPOS>ATOM
      1 C1          1.4667    2.0263    0.0242 C.3       1 <0>        -0.1528
      2 C2          0.0260    1.5112    0.0231 C.3       1 <0>        -0.1194
      3 C3          0.0314   -0.0187    0.0145 C.3       1 <0>        -0.1344
      4 C4         -1.4092   -0.5338    0.0134 C.3       1 <0>         0.1089
      5 N1         -1.4041   -1.9988    0.0052 N.am      1 <0>        -0.5525
      6 C5         -1.4087   -2.6593   -1.1712 C.2       1 <0>         0.5807
      7 O1         -1.4172   -2.0506   -2.2253 O.2       1 <0>        -0.4892
      8 C6         -1.3984   -4.1264   -1.1537 C.2       1 <0>        -0.3787
      9 C7         -1.3946   -4.7671    0.0882 C.2       1 <0>         0.4782
     10 N2         -1.3955   -4.0107    1.2238 N.am      1 <0>        -0.6606
     11 H1         -1.3925   -4.4647    2.1148 H         1 <0>         0.4443
     12 C8         -1.4003   -2.6695    1.1691 C.2       1 <0>         0.7105
     13 O2         -1.4008   -2.0400    2.2089 O.2       1 <0>        -0.5198
     14 O3         -1.3907   -6.1109    0.1631 O.3       1 <0>        -0.4096
     15 C9         -1.3977   -4.8975   -2.4022 C.2       1 <0>         0.4573
     16 O4         -1.2871   -6.1107   -2.3691 O.2       1 <0>        -0.4626
     17 C10        -1.5299   -4.2085   -3.6890 C.2       1 <0>        -0.2281
     18 C11        -1.6330   -4.9221   -4.8281 C.2       1 <0>        -0.0324
     19 C12        -1.7657   -4.2302   -6.1205 C.ar      1 <0>        -0.0758
     20 C13        -1.7912   -2.8329   -6.1703 C.ar      1 <0>        -0.0986
     21 C14        -1.9114   -2.1920   -7.3852 C.ar      1 <0>        -0.1229
     22 C15        -2.0170   -2.9281   -8.5525 C.ar      1 <0>        -0.1104
     23 C16        -1.9974   -4.3114   -8.5111 C.ar      1 <0>        -0.1247
     24 C17        -1.8729   -4.9668   -7.3044 C.ar      1 <0>        -0.0980
     25 H2          1.9830    1.6598    0.9115 H         1 <0>         0.0539
     26 H3          1.9807    1.6698   -0.8684 H         1 <0>         0.0550
     27 H4          1.4629    3.1163    0.0303 H         1 <0>         0.0574
     28 H5         -0.4902    1.8777   -0.8642 H         1 <0>         0.0673
     29 H6         -0.4880    1.8677    0.9157 H         1 <0>         0.0661
     30 H7          0.5454   -0.3753   -0.8781 H         1 <0>         0.0711
     31 H8          0.5477   -0.3852    0.9018 H         1 <0>         0.0680
     32 H9         -1.9232   -0.1773    0.9061 H         1 <0>         0.1013
     33 H10        -1.9255   -0.1673   -0.8739 H         1 <0>         0.1057
     34 H11        -1.3885   -6.5013    1.0478 H         1 <0>         0.4182
     35 H12        -1.5447   -3.1292   -3.7246 H         1 <0>         0.1638
     36 H13        -1.6181   -6.0014   -4.7925 H         1 <0>         0.1296
     37 H14        -1.7134   -2.2572   -5.2598 H         1 <0>         0.1330
     38 H15        -1.9275   -1.1128   -7.4257 H         1 <0>         0.1253
     39 H16        -2.1148   -2.4204   -9.5008 H         1 <0>         0.1233
     40 H17        -2.0803   -4.8789   -9.4262 H         1 <0>         0.1251
     41 H18        -1.8578   -6.0463   -7.2736 H         1 <0>         0.1265
@<TRIPOS>BOND
     1    1    2 1
     2    1   25 1
     3    1   26 1
     4    1   27 1
     5    2    3 1
     6    2   28 1
     7    2   29 1
     8    3    4 1
     9    3   30 1
    10    3   31 1
    11    4    5 1
    12    4   32 1
    13    4   33 1
    14    5   12 am
    15    5    6 am
    16    6    7 2
    17    6    8 1
    18    8    9 2
    19    8   15 1
    20    9   10 1
    21    9   14 1
    22   10   11 1
    23   10   12 am
    24   12   13 2
    25   14   34 1
    26   15   16 2
    27   15   17 1
    28   17   18 2
    29   17   35 1
    30   18   19 1
    31   18   36 1
    32   19   24 ar
    33   19   20 ar
    34   20   21 ar
    35   20   37 1
    36   21   22 ar
    37   21   38 1
    38   22   23 ar
    39   22   39 1
    40   23   24 ar
    41   23   40 1
    42   24   41 1
@<TRIPOS>MOLECULE
ZINC02241698
   38    41     0     0     0
SMALL
USER_CHARGES
2-fluoro-N-(3-oxo-8-phenyl-2,6,7,9-tetrazabicyclo[4.3.0]nona-4,7,9-trien-5-yl)-benzamide
@<TRIPOS>ATOM
      1 C1         -0.0093    0.0114   -0.2823 C.ar      1 <0>        -0.0956
      2 C2         -0.0252    1.3942   -0.2511 C.ar      1 <0>        -0.1247
      3 C3          1.1602    2.0996   -0.2058 C.ar      1 <0>        -0.0750
      4 C4          2.3745    1.4162   -0.1920 C.ar      1 <0>        -0.0279
      5 C5          2.3846    0.0231   -0.2235 C.ar      1 <0>        -0.0685
      6 C6          1.1932   -0.6721   -0.2683 C.ar      1 <0>        -0.1254
      7 C7          3.6521    2.1691   -0.1434 C.2       1 <0>         0.3178
      8 N1          4.8754    1.6229   -0.1199 N.2       1 <0>        -0.5281
      9 C8          5.7855    2.5724   -0.0816 C.2       1 <0>         0.5209
     10 N2          7.1624    2.5338   -0.0482 N.am      1 <0>        -0.6082
     11 H1          7.6369    1.6536   -0.0566 H         1 <0>         0.4456
     12 C9          7.8715    3.6791   -0.0042 C.2       1 <0>         0.5644
     13 O1          9.0898    3.6419    0.0249 O.2       1 <0>        -0.5023
     14 C10         7.2040    4.9174    0.0075 C.2       1 <0>        -0.2603
     15 C11         5.8428    4.9470   -0.0257 C.2       1 <0>         0.4519
     16 N3          5.1358    3.7685   -0.0704 N.pl3     1 <0>        -0.3498
     17 N4          3.7645    3.4794   -0.1107 N.2       1 <0>        -0.2735
     18 N5          5.1764    6.1536   -0.0142 N.am      1 <0>        -0.6729
     19 C12         4.3298    6.4654   -1.0154 C.2       1 <0>         0.5681
     20 O2          4.0863    5.6486   -1.8820 O.2       1 <0>        -0.4735
     21 C13         3.6981    7.7990   -1.0595 C.ar      1 <0>        -0.1786
     22 C14         3.9709    8.7383   -0.0622 C.ar      1 <0>        -0.0553
     23 C15         3.3814    9.9834   -0.1119 C.ar      1 <0>        -0.1361
     24 C16         2.5118   10.3022   -1.1412 C.ar      1 <0>        -0.0539
     25 C17         2.2313    9.3780   -2.1298 C.ar      1 <0>        -0.1623
     26 C18         2.8190    8.1263   -2.0968 C.ar      1 <0>         0.1683
     27 F1          2.5443    7.2229   -3.0630 F         1 <0>        -0.1115
     28 H2         -0.9393   -0.5367   -0.3173 H         1 <0>         0.1285
     29 H3         -0.9668    1.9229   -0.2668 H         1 <0>         0.1306
     30 H4          1.1466    3.1793   -0.1819 H         1 <0>         0.1307
     31 H5          3.3229   -0.5115   -0.2133 H         1 <0>         0.1376
     32 H6          1.1998   -1.7518   -0.2927 H         1 <0>         0.1317
     33 H7          7.7672    5.8383    0.0431 H         1 <0>         0.1913
     34 H8          5.3169    6.7782    0.7145 H         1 <0>         0.4274
     35 H9          4.6456    8.4910    0.7441 H         1 <0>         0.1364
     36 H10         3.5954   10.7112    0.6568 H         1 <0>         0.1415
     37 H11         2.0500   11.2780   -1.1715 H         1 <0>         0.1431
     38 H12         1.5518    9.6335   -2.9294 H         1 <0>         0.1476
@<TRIPOS>BOND
     1    1    6 ar
     2    1    2 ar
     3    1   28 1
     4    2    3 ar
     5    2   29 1
     6    3    4 ar
     7    3   30 1
     8    4    5 ar
     9    4    7 1
    10    5    6 ar
    11    5   31 1
    12    6   32 1
    13    7   17 2
    14    7    8 1
    15    8    9 2
    16    9   16 1
    17    9   10 1
    18   10   11 1
    19   10   12 am
    20   12   13 2
    21   12   14 1
    22   14   15 2
    23   14   33 1
    24   15   16 1
    25   15   18 1
    26   16   17 1
    27   18   19 am
    28   18   34 1
    29   19   20 2
    30   19   21 1
    31   21   26 ar
    32   21   22 ar
    33   22   23 ar
    34   22   35 1
    35   23   24 ar
    36   23   36 1
    37   24   25 ar
    38   24   37 1
    39   25   26 ar
    40   25   38 1
    41   26   27 1
@<TRIPOS>MOLECULE
ZINC05343422
   36    38     0     0     0
SMALL
USER_CHARGES
5-(2-hydroxy-5-methyl-phenyl)-N-(3-pyridyl)-2H-pyrazole-3-carboxamide
@<TRIPOS>ATOM
      1 C1          7.7988    4.8550    0.2033 C.3       1 <0>        -0.1177
      2 C2          6.9926    3.5854    0.2995 C.ar      1 <0>        -0.0843
      3 C3          7.6351    2.3723    0.4741 C.ar      1 <0>        -0.0961
      4 C4          6.9043    1.2029    0.5640 C.ar      1 <0>        -0.1315
      5 C5          5.5216    1.2403    0.4789 C.ar      1 <0>         0.1281
      6 C6          4.8701    2.4640    0.3021 C.ar      1 <0>        -0.0489
      7 C7          5.6165    3.6358    0.2070 C.ar      1 <0>        -0.1045
      8 C8          3.3897    2.5137    0.2099 C.2       1 <0>         0.0468
      9 C9          2.5146    1.4147    0.2891 C.2       1 <0>        -0.1390
     10 C10         1.2470    1.9474    0.1495 C.2       1 <0>        -0.0278
     11 N1          1.4084    3.2959   -0.0033 N.2       1 <0>        -0.2777
     12 H1          3.0231    4.5197   -0.0532 H         1 <0>         0.4543
     13 N2          2.6570    3.5934    0.0361 N.pl3     1 <0>        -0.3261
     14 C11        -0.0255    1.2084    0.1628 C.2       1 <0>         0.6110
     15 O1         -0.0254   -0.0003    0.2995 O.2       1 <0>        -0.5082
     16 N3         -1.1906    1.8701    0.0179 N.am      1 <0>        -0.6575
     17 C12        -2.3905    1.1590   -0.0859 C.ar      1 <0>         0.0974
     18 C13        -2.4213   -0.0891   -0.7038 C.ar      1 <0>        -0.0797
     19 C14        -3.6323   -0.7571   -0.7772 C.ar      1 <0>        -0.1496
     20 C15        -4.7641   -0.1637   -0.2490 C.ar      1 <0>         0.0808
     21 N4         -4.7025    1.0218    0.3250 N.ar      1 <0>        -0.4648
     22 C16        -3.5699    1.6893    0.4205 C.ar      1 <0>         0.0786
     23 O2          4.8021    0.0914    0.5675 O.3       1 <0>        -0.4885
     24 H2          8.0527    5.0460   -0.8393 H         1 <0>         0.0746
     25 H3          7.2131    5.6876    0.5931 H         1 <0>         0.0683
     26 H4          8.7135    4.7498    0.7867 H         1 <0>         0.0716
     27 H5          8.7126    2.3394    0.5408 H         1 <0>         0.1325
     28 H6          7.4112    0.2591    0.7002 H         1 <0>         0.1377
     29 H7          5.1185    4.5838    0.0660 H         1 <0>         0.1220
     30 H8          2.7774    0.3766    0.4290 H         1 <0>         0.1794
     31 H9         -1.1970    2.8396   -0.0145 H         1 <0>         0.4203
     32 H10        -1.5222   -0.5268   -1.1119 H         1 <0>         0.1463
     33 H11        -3.6928   -1.7285   -1.2454 H         1 <0>         0.1405
     34 H12        -5.7117   -0.6783   -0.3076 H         1 <0>         0.1593
     35 H13        -3.5589    2.6581    0.8977 H         1 <0>         0.1581
     36 H14         4.6446   -0.3407   -0.2832 H         1 <0>         0.3945
@<TRIPOS>BOND
     1    1    2 1
     2    1   24 1
     3    1   25 1
     4    1   26 1
     5    2    7 ar
     6    2    3 ar
     7    3    4 ar
     8    3   27 1
     9    4    5 ar
    10    4   28 1
    11    5    6 ar
    12    5   23 1
    13    6    7 ar
    14    6    8 1
    15    7   29 1
    16    8    9 2
    17    8   13 1
    18    9   30 1
    19    9   10 1
    20   10   14 1
    21   10   11 2
    22   11   13 1
    23   12   13 1
    24   14   15 2
    25   14   16 am
    26   16   17 1
    27   16   31 1
    28   17   22 ar
    29   17   18 ar
    30   18   19 ar
    31   18   32 1
    32   19   20 ar
    33   19   33 1
    34   20   21 ar
    35   20   34 1
    36   21   22 ar
    37   22   35 1
    38   23   36 1
@<TRIPOS>MOLECULE
ZINC05343429
   36    38     0     0     0
SMALL
USER_CHARGES
2-(3-chlorophenyl)-4-(methylaminomethylene)isoquinoline-1,3-dione
@<TRIPOS>ATOM
      1 C1          6.1126    2.4981   -0.7126 C.3       1 <0>         0.0299
      2 C2          3.6467    2.4369   -1.1831 C.2       1 <0>         0.3825
      3 C3          2.4376    1.7929   -1.0392 C.3       1 <0>        -0.1375
      4 C4          2.3728    0.3277   -0.8577 C.ar      1 <0>        -0.0767
      5 C5          3.5195   -0.4572   -0.8254 C.ar      1 <0>        -0.1688
      6 C6          3.4064   -1.8217   -0.6541 C.ar      1 <0>        -0.0505
      7 C7          2.1595   -2.4138   -0.5149 C.ar      1 <0>        -0.0985
      8 C8          1.0112   -1.6521   -0.5440 C.ar      1 <0>        -0.0173
      9 C9          1.1034   -0.2705   -0.7161 C.ar      1 <0>        -0.1187
     10 C10        -0.0949    0.5773   -0.7538 C.2       1 <0>         0.5559
     11 O1         -1.1925    0.0673   -0.6318 O.2       1 <0>        -0.4368
     12 N1          0.0007    1.9066   -0.9204 N.am      1 <0>        -0.5028
     13 C11         1.1758    2.5412   -1.0612 C.2       1 <0>         0.5720
     14 O2          1.1942    3.7495   -1.2089 O.2       1 <0>        -0.4447
     15 C12        -1.1776    2.6636   -0.9542 C.ar      1 <0>         0.1040
     16 C13        -1.8255    2.8886   -2.1619 C.ar      1 <0>        -0.0863
     17 C14        -2.9869    3.6353   -2.1928 C.ar      1 <0>        -0.0917
     18 C15        -3.5054    4.1592   -1.0228 C.ar      1 <0>        -0.0823
     19 C16        -2.8626    3.9372    0.1823 C.ar      1 <0>        -0.0265
     20 C17        -1.7027    3.1856    0.2199 C.ar      1 <0>        -0.0818
     21 Cl1        -3.5171    4.5962    1.6489 Cl        1 <0>        -0.0444
     22 H1          6.4091    2.5774   -1.7585 H         1 <0>         0.1167
     23 H2          6.1009    3.4905   -0.2621 H         1 <0>         0.1194
     24 H3          6.8235    1.8659   -0.1805 H         1 <0>         0.1174
     25 H4          2.6734    1.5095   -1.9687 H         1 <0>         0.1968
     26 H5          3.7028    3.3627   -1.7363 H         1 <0>         0.2426
     27 H6          4.4929   -0.0019   -0.9333 H         1 <0>         0.1416
     28 H7          4.2958   -2.4339   -0.6286 H         1 <0>         0.1534
     29 H8          2.0877   -3.4832   -0.3823 H         1 <0>         0.1557
     30 H9          0.0452   -2.1222   -0.4343 H         1 <0>         0.1615
     31 H10        -1.4212    2.4802   -3.0762 H         1 <0>         0.1341
     32 H11        -3.4909    3.8099   -3.1319 H         1 <0>         0.1492
     33 H12        -4.4139    4.7425   -1.0496 H         1 <0>         0.1481
     34 H13        -1.2037    3.0083    1.1611 H         1 <0>         0.1384
     35 N2          4.7634    1.8451   -0.5921 N.pl3     1 <0>        -0.6103
     36 H14         4.6640    0.9637   -0.0748 H         1 <0>         0.4568
@<TRIPOS>BOND
     1    1   22 1
     2    1   23 1
     3    1   24 1
     4    1   35 1
     5    2   26 1
     6    2    3 1
     7    2   35 2
     8    3   13 1
     9    3    4 1
    10    3   25 1
    11    4    9 ar
    12    4    5 ar
    13    5    6 ar
    14    5   27 1
    15    6    7 ar
    16    6   28 1
    17    7    8 ar
    18    7   29 1
    19    8    9 ar
    20    8   30 1
    21    9   10 1
    22   10   11 2
    23   10   12 am
    24   12   13 am
    25   12   15 1
    26   13   14 2
    27   15   20 ar
    28   15   16 ar
    29   16   17 ar
    30   16   31 1
    31   17   18 ar
    32   17   32 1
    33   18   19 ar
    34   18   33 1
    35   19   20 ar
    36   19   21 1
    37   20   34 1
    38   35   36 1
@<TRIPOS>MOLECULE
ZINC02431980
   55    58     0     0     0
SMALL
USER_CHARGES
2-diethylamino-1-[2-(2-naphthyl)-4-quinolyl]-ethanol
@<TRIPOS>ATOM
      1 C1          7.0053   11.3096   -1.5429 C.3       1 <0>        -0.1912
      2 C2          5.8645   11.9318   -0.7352 C.3       1 <0>        -0.0175
      3 C3          4.5056   12.0745   -2.7341 C.3       1 <0>        -0.0127
      4 C4          4.3757   13.5990   -2.7241 C.3       1 <0>        -0.1881
      5 C5          4.3482   10.1304   -1.2995 C.3       1 <0>        -0.0450
      6 C6          4.1837    9.6933    0.1575 C.3       1 <0>         0.1329
      7 H1          5.0504   10.0170    0.7339 H         1 <0>         0.1364
      8 C7          4.0699    8.1920    0.2218 C.ar      1 <0>        -0.0806
      9 C8          2.8501    7.5838    0.2474 C.ar      1 <0>        -0.1376
     10 C9          2.7687    6.1837    0.3069 C.ar      1 <0>         0.2138
     11 N1          3.8520    5.4313    0.3445 N.ar      1 <0>        -0.4543
     12 C10         5.0726    5.9723    0.3163 C.ar      1 <0>         0.1409
     13 C11         5.2214    7.3809    0.2565 C.ar      1 <0>        -0.0925
     14 C12         6.5081    7.9414    0.2334 C.ar      1 <0>        -0.1253
     15 C13         7.5987    7.1266    0.2678 C.ar      1 <0>        -0.0928
     16 C14         7.4552    5.7418    0.3266 C.ar      1 <0>        -0.0978
     17 C15         6.2234    5.1641    0.3509 C.ar      1 <0>        -0.0796
     18 C16         1.4356    5.5361    0.3342 C.ar      1 <0>        -0.0747
     19 C17         0.2757    6.3279    0.3008 C.ar      1 <0>        -0.1027
     20 C18        -0.9570    5.7591    0.3247 C.ar      1 <0>        -0.1019
     21 C19        -1.0844    4.3594    0.3836 C.ar      1 <0>        -0.0384
     22 C20        -2.3486    3.7469    0.4088 C.ar      1 <0>        -0.1129
     23 C21        -2.4399    2.3897    0.4607 C.ar      1 <0>        -0.1015
     24 C22        -1.2962    1.5943    0.5002 C.ar      1 <0>        -0.1131
     25 C23        -0.0548    2.1515    0.4773 C.ar      1 <0>        -0.0993
     26 C24         0.0793    3.5502    0.4183 C.ar      1 <0>        -0.0612
     27 C25         1.3442    4.1576    0.3927 C.ar      1 <0>        -0.0415
     28 O1          3.0020   10.2844    0.7017 O.3       1 <0>        -0.5417
     29 H2          7.9498   11.4753   -1.0248 H         1 <0>         0.1092
     30 H3          6.8327   10.2387   -1.6501 H         1 <0>         0.0790
     31 H4          7.0461   11.7715   -2.5294 H         1 <0>         0.0845
     32 H5          5.9773   13.0159   -0.7228 H         1 <0>         0.1348
     33 H6          5.8930   11.5518    0.2860 H         1 <0>         0.1276
     34 H7          5.4113   11.7906   -3.2701 H         1 <0>         0.1337
     35 H8          3.6382   11.6392   -3.2303 H         1 <0>         0.1284
     36 H9          3.4843   13.8840   -2.1653 H         1 <0>         0.0811
     37 H10         5.2557   14.0355   -2.2517 H         1 <0>         0.0804
     38 H11         4.2946   13.9635   -3.7481 H         1 <0>         0.1071
     39 H12         5.1985    9.6108   -1.7409 H         1 <0>         0.1463
     40 H13         3.4437    9.8857   -1.8565 H         1 <0>         0.1380
     41 H14         1.9484    8.1778    0.2217 H         1 <0>         0.1422
     42 H15         6.6326    9.0133    0.1875 H         1 <0>         0.1210
     43 H16         8.5880    7.5594    0.2493 H         1 <0>         0.1340
     44 H17         8.3358    5.1169    0.3530 H         1 <0>         0.1391
     45 H18         6.1296    4.0892    0.3969 H         1 <0>         0.1438
     46 H19         0.3656    7.4033    0.2559 H         1 <0>         0.1228
     47 H20        -1.8395    6.3811    0.2981 H         1 <0>         0.1335
     48 H21        -3.2441    4.3501    0.3825 H         1 <0>         0.1311
     49 H22        -3.4134    1.9224    0.4759 H         1 <0>         0.1286
     50 H23        -1.3965    0.5199    0.5452 H         1 <0>         0.1289
     51 H24         0.8229    1.5227    0.5047 H         1 <0>         0.1314
     52 H25         2.2389    3.5533    0.4189 H         1 <0>         0.1420
     53 H26         2.1900   10.0396    0.2370 H         1 <0>         0.3897
     54 N2          4.5580   11.5930   -1.3377 N.4       1 <0>        -0.3919
     55 H27         3.8135   12.0509   -0.7988 H         1 <0>         0.4336
@<TRIPOS>BOND
     1    1    2 1
     2    1   29 1
     3    1   30 1
     4    1   31 1
     5    2   32 1
     6    2   33 1
     7    2   54 1
     8    3    4 1
     9    3   34 1
    10    3   35 1
    11    3   54 1
    12    4   36 1
    13    4   37 1
    14    4   38 1
    15    5    6 1
    16    5   39 1
    17    5   40 1
    18    5   54 1
    19    6    7 1
    20    6    8 1
    21    6   28 1
    22    8   13 ar
    23    8    9 ar
    24    9   10 ar
    25    9   41 1
    26   10   11 ar
    27   10   18 1
    28   11   12 ar
    29   12   17 ar
    30   12   13 ar
    31   13   14 ar
    32   14   15 ar
    33   14   42 1
    34   15   16 ar
    35   15   43 1
    36   16   17 ar
    37   16   44 1
    38   17   45 1
    39   18   27 ar
    40   18   19 ar
    41   19   20 ar
    42   19   46 1
    43   20   21 ar
    44   20   47 1
    45   21   26 ar
    46   21   22 ar
    47   22   23 ar
    48   22   48 1
    49   23   24 ar
    50   23   49 1
    51   24   25 ar
    52   24   50 1
    53   25   26 ar
    54   25   51 1
    55   26   27 ar
    56   27   52 1
    57   28   53 1
    58   54   55 1
@<TRIPOS>MOLECULE
ZINC02432643
   36    38     0     0     0
SMALL
USER_CHARGES
3-chloro-8-[(3-methoxyphenyl)methylamino]-4-methyl-1,5,7,9-tetrazabicyclo[4.3.0]nona-3,6,8-trien-2-one
@<TRIPOS>ATOM
      1 C1         -9.7358    7.2408    7.5050 C.3       1 <0>        -0.1369
      2 C2         -8.8581    6.0782    7.1190 C.2       1 <0>         0.2363
      3 C3         -8.6104    5.0923    8.0112 C.2       1 <0>        -0.2244
      4 C4         -7.7871    4.0071    7.6394 C.2       1 <0>         0.5718
      5 O1         -7.5569    3.1127    8.4342 O.2       1 <0>        -0.4634
      6 N1         -7.2587    3.9656    6.4034 N.am      1 <0>        -0.3665
      7 C5         -7.5124    4.9612    5.5111 C.2       1 <0>         0.5207
      8 N2         -8.3137    6.0198    5.8691 N.pl3     1 <0>        -0.5761
      9 H1         -8.4982    6.7497    5.2109 H         1 <0>         0.4539
     10 N3         -6.8727    4.6704    4.3965 N.2       1 <0>        -0.5588
     11 C6         -6.2200    3.5128    4.5392 C.2       1 <0>         0.5127
     12 N4         -6.4245    3.0476    5.7504 N.2       1 <0>        -0.3279
     13 N5         -5.4413    2.8998    3.5604 N.pl3     1 <0>        -0.6842
     14 C7         -4.7707    1.6293    3.8472 C.3       1 <0>         0.1792
     15 C8         -3.9991    1.1830    2.6321 C.ar      1 <0>        -0.0724
     16 C9         -4.6077    0.3824    1.6829 C.ar      1 <0>        -0.1338
     17 C10        -3.9027   -0.0283    0.5669 C.ar      1 <0>        -0.0810
     18 C11        -2.5892    0.3643    0.3949 C.ar      1 <0>        -0.1976
     19 C12        -1.9749    1.1630    1.3482 C.ar      1 <0>         0.1253
     20 C13        -2.6848    1.5743    2.4672 C.ar      1 <0>        -0.1289
     21 O2         -0.6816    1.5467    1.1837 O.3       1 <0>        -0.3166
     22 C14        -0.0127    1.0858    0.0080 C.3       1 <0>         0.0263
     23 Cl1        -9.2997    5.1610    9.6030 Cl        1 <0>         0.0097
     24 H2        -10.0757    7.1139    8.5329 H         1 <0>         0.1099
     25 H3         -9.1684    8.1677    7.4218 H         1 <0>         0.1034
     26 H4        -10.5982    7.2816    6.8396 H         1 <0>         0.1034
     27 H5         -5.3431    3.3141    2.6888 H         1 <0>         0.4200
     28 H6         -5.5151    0.8749    4.1022 H         1 <0>         0.0805
     29 H7         -4.0854    1.7611    4.6846 H         1 <0>         0.0793
     30 H8         -5.6356    0.0777    1.8135 H         1 <0>         0.1278
     31 H9         -4.3803   -0.6533   -0.1732 H         1 <0>         0.1289
     32 H10        -2.0402    0.0466   -0.4791 H         1 <0>         0.1302
     33 H11        -2.2099    2.1995    3.2088 H         1 <0>         0.1339
     34 H12         0.0021   -0.0041    0.0020 H         1 <0>         0.0568
     35 H13         1.0099    1.4631    0.0003 H         1 <0>         0.1021
     36 H14        -0.5399    1.4469   -0.8751 H         1 <0>         0.0565
@<TRIPOS>BOND
     1    1    2 1
     2    1   24 1
     3    1   25 1
     4    1   26 1
     5    2    8 1
     6    2    3 2
     7    3    4 1
     8    3   23 1
     9    4    5 2
    10    4    6 am
    11    6   12 1
    12    6    7 1
    13    7    8 1
    14    7   10 2
    15    8    9 1
    16   10   11 1
    17   11   12 2
    18   11   13 1
    19   13   14 1
    20   13   27 1
    21   14   15 1
    22   14   28 1
    23   14   29 1
    24   15   20 ar
    25   15   16 ar
    26   16   17 ar
    27   16   30 1
    28   17   18 ar
    29   17   31 1
    30   18   19 ar
    31   18   32 1
    32   19   20 ar
    33   19   21 1
    34   20   33 1
    35   21   22 1
    36   22   34 1
    37   22   35 1
    38   22   36 1
@<TRIPOS>MOLECULE
ZINC00542816
   39    41     0     0     0
SMALL
USER_CHARGES
4-[4-(3-methoxyphenoxy)-5-methyl-1H-pyrazol-3-yl]benzene-1,3-diol
@<TRIPOS>ATOM
      1 C1          8.0998    4.7210   -1.6714 C.3       1 <0>        -0.0961
      2 C2          6.9996    4.2060   -0.7797 C.2       1 <0>         0.0981
      3 C3          5.8283    3.6641   -1.1898 C.2       1 <0>        -0.0609
      4 C4          5.0871    3.3175   -0.0399 C.2       1 <0>         0.1233
      5 N1          5.8020    3.6371    1.0184 N.2       1 <0>        -0.2445
      6 N2          7.0084    4.1973    0.5796 N.pl3     1 <0>        -0.4672
      7 H1          7.7473    4.5324    1.1642 H         1 <0>         0.4555
      8 C5          3.7405    2.6958   -0.0262 C.ar      1 <0>        -0.0614
      9 C6          3.0918    2.4076   -1.2250 C.ar      1 <0>        -0.0599
     10 C7          1.8398    1.8290   -1.2097 C.ar      1 <0>        -0.1545
     11 C8          1.2227    1.5324   -0.0014 C.ar      1 <0>         0.1368
     12 C9          1.8595    1.8210    1.1964 C.ar      1 <0>        -0.1791
     13 C10         3.1186    2.3968    1.1900 C.ar      1 <0>         0.1549
     14 O1          3.7458    2.6759    2.3624 O.3       1 <0>        -0.4788
     15 O2         -0.0110    0.9628    0.0073 O.3       1 <0>        -0.4969
     16 O3          5.4344    3.4881   -2.4813 O.3       1 <0>        -0.2168
     17 C11         4.7477    4.4950   -3.0816 C.ar      1 <0>         0.1507
     18 C12         4.4673    5.6596   -2.3798 C.ar      1 <0>        -0.2237
     19 C13         3.7694    6.6839   -2.9899 C.ar      1 <0>        -0.0424
     20 C14         3.3484    6.5521   -4.2997 C.ar      1 <0>        -0.2394
     21 C15         3.6257    5.3899   -5.0053 C.ar      1 <0>         0.1648
     22 C16         4.3313    4.3628   -4.3975 C.ar      1 <0>        -0.1835
     23 O4          3.2113    5.2611   -6.2932 O.3       1 <0>        -0.3135
     24 C17         2.4952    6.3615   -6.8574 C.3       1 <0>         0.0269
     25 H2          8.7952    3.9119   -1.8948 H         1 <0>         0.0901
     26 H3          7.6693    5.0968   -2.5996 H         1 <0>         0.0893
     27 H4          8.6308    5.5269   -1.1648 H         1 <0>         0.0783
     28 H5          3.5694    2.6368   -2.1662 H         1 <0>         0.1439
     29 H6          1.3383    1.6058   -2.1397 H         1 <0>         0.1372
     30 H7          1.3748    1.5930    2.1342 H         1 <0>         0.1397
     31 H8          3.5567    3.5585    2.7094 H         1 <0>         0.3925
     32 H9          0.0021   -0.0041    0.0020 H         1 <0>         0.3959
     33 H10         4.7952    5.7650   -1.3562 H         1 <0>         0.1247
     34 H11         3.5528    7.5894   -2.4426 H         1 <0>         0.1271
     35 H12         2.8033    7.3545   -4.7745 H         1 <0>         0.1302
     36 H13         4.5526    3.4596   -4.9467 H         1 <0>         0.1411
     37 H14         2.2239    6.1287   -7.8871 H         1 <0>         0.1026
     38 H15         1.5915    6.5435   -6.2758 H         1 <0>         0.0577
     39 H16         3.1241    7.2516   -6.8397 H         1 <0>         0.0573
@<TRIPOS>BOND
     1    1    2 1
     2    1   25 1
     3    1   26 1
     4    1   27 1
     5    2    6 1
     6    2    3 2
     7    3    4 1
     8    3   16 1
     9    4    5 2
    10    4    8 1
    11    5    6 1
    12    6    7 1
    13    8   13 ar
    14    8    9 ar
    15    9   10 ar
    16    9   28 1
    17   10   11 ar
    18   10   29 1
    19   11   12 ar
    20   11   15 1
    21   12   13 ar
    22   12   30 1
    23   13   14 1
    24   14   31 1
    25   15   32 1
    26   16   17 1
    27   17   22 ar
    28   17   18 ar
    29   18   19 ar
    30   18   33 1
    31   19   20 ar
    32   19   34 1
    33   20   21 ar
    34   20   35 1
    35   21   22 ar
    36   21   23 1
    37   22   36 1
    38   23   24 1
    39   24   37 1
    40   24   38 1
    41   24   39 1
@<TRIPOS>MOLECULE
ZINC05343446
   35    37     0     0     0
SMALL
USER_CHARGES
5-(5-chloro-2-hydroxy-phenyl)-N-(5-ethyl-1,3,4-thiadiazol-2-yl)-2H-pyrazole-3-carboxamide
@<TRIPOS>ATOM
      1 C1         -0.0127    1.0858    0.0080 C.3       1 <0>        -0.1506
      2 C2         -0.7288    1.5792    1.2668 C.3       1 <0>        -0.0290
      3 C3         -0.7493    3.0861    1.2751 C.2       1 <0>         0.0790
      4 N1         -1.6404    3.9239    0.7834 N.2       1 <0>        -0.2555
      5 N2         -1.5083    5.1749    0.8749 N.2       1 <0>        -0.2749
      6 C4         -0.4610    5.7256    1.4734 C.2       1 <0>         0.2859
      7 S1          0.4259    4.2490    1.9625 S.3       1 <0>        -0.0216
      8 N3         -0.1454    7.0645    1.6700 N.am      1 <0>        -0.6124
      9 C5         -0.9735    8.0258    1.2155 C.2       1 <0>         0.5915
     10 O1         -1.9971    7.7214    0.6332 O.2       1 <0>        -0.4403
     11 C6         -0.6393    9.4435    1.4237 C.2       1 <0>        -0.0418
     12 C7         -1.3793   10.5368    1.0144 C.2       1 <0>        -0.1185
     13 C8         -0.6513   11.6605    1.4467 C.2       1 <0>         0.0660
     14 N4          0.4325   11.2230    2.0526 N.2       1 <0>        -0.2192
     15 N5          0.4670    9.9393    2.0548 N.pl3     1 <0>        -0.3761
     16 H1          1.1950    9.3849    2.4582 H         1 <0>         0.4536
     17 C9         -1.0331   13.0812    1.2504 C.ar      1 <0>        -0.0267
     18 C10        -2.2147   13.4024    0.5872 C.ar      1 <0>        -0.0757
     19 C11        -2.5657   14.7262    0.4069 C.ar      1 <0>        -0.0432
     20 C12        -1.7461   15.7353    0.8836 C.ar      1 <0>        -0.0857
     21 C13        -0.5718   15.4261    1.5433 C.ar      1 <0>        -0.1328
     22 C14        -0.2112   14.1021    1.7353 C.ar      1 <0>         0.1372
     23 O2          0.9408   13.7973    2.3884 O.3       1 <0>        -0.4783
     24 Cl1        -4.0386   15.1259   -0.4205 Cl        1 <0>        -0.0590
     25 H2          0.0021   -0.0041    0.0020 H         1 <0>         0.0765
     26 H3          1.0099    1.4631    0.0003 H         1 <0>         0.0595
     27 H4         -0.5399    1.4469   -0.8751 H         1 <0>         0.0656
     28 H5         -1.7514    1.2020    1.2746 H         1 <0>         0.1099
     29 H6         -0.2017    1.2182    2.1499 H         1 <0>         0.0976
     30 H7          0.6709    7.3072    2.1344 H         1 <0>         0.4237
     31 H8         -2.3169   10.5300    0.4784 H         1 <0>         0.1739
     32 H9         -2.8558   12.6175    0.2140 H         1 <0>         0.1433
     33 H10        -2.0259   16.7685    0.7395 H         1 <0>         0.1414
     34 H11         0.0632   16.2173    1.9136 H         1 <0>         0.1436
     35 H12         1.7122   13.7208    1.8104 H         1 <0>         0.3928
@<TRIPOS>BOND
     1    1    2 1
     2    1   25 1
     3    1   26 1
     4    1   27 1
     5    2    3 1
     6    2   28 1
     7    2   29 1
     8    3    7 1
     9    3    4 2
    10    4    5 1
    11    5    6 2
    12    6    7 1
    13    6    8 1
    14    8    9 am
    15    8   30 1
    16    9   10 2
    17    9   11 1
    18   11   15 1
    19   11   12 2
    20   12   13 1
    21   12   31 1
    22   13   14 2
    23   13   17 1
    24   14   15 1
    25   15   16 1
    26   17   22 ar
    27   17   18 ar
    28   18   19 ar
    29   18   32 1
    30   19   20 ar
    31   19   24 1
    32   20   21 ar
    33   20   33 1
    34   21   22 ar
    35   21   34 1
    36   22   23 1
    37   23   35 1
@<TRIPOS>MOLECULE
ZINC02432743
   38    40     0     0     0
SMALL
USER_CHARGES
8-[(4-fluorophenyl)methylamino]-4-propyl-1,5,7,9-tetrazabicyclo[4.3.0]nona-3,6,8-trien-2-one
@<TRIPOS>ATOM
      1 C1         -0.0127    1.0858    0.0080 C.3       1 <0>        -0.1546
      2 C2         -0.7288    1.5792    1.2668 C.3       1 <0>        -0.1239
      3 C3         -0.7496    3.1091    1.2752 C.3       1 <0>        -0.0892
      4 C4         -1.4550    3.5951    2.5151 C.2       1 <0>         0.2201
      5 C5         -0.7406    3.9150    3.6176 C.2       1 <0>        -0.2892
      6 C6         -1.4096    4.3748    4.7720 C.2       1 <0>         0.5630
      7 O1         -0.7762    4.6704    5.7700 O.2       1 <0>        -0.4867
      8 N1         -2.7505    4.4784    4.7671 N.am      1 <0>        -0.3693
      9 C7         -3.4632    4.1493    3.6556 C.2       1 <0>         0.5240
     10 N2         -2.8138    3.7067    2.5267 N.pl3     1 <0>        -0.5837
     11 H1         -3.3403    3.4659    1.7114 H         1 <0>         0.4466
     12 N3         -4.7377    4.3439    3.9268 N.2       1 <0>        -0.5673
     13 C8         -4.8699    4.7889    5.1802 C.2       1 <0>         0.5102
     14 N4         -3.6819    4.8864    5.7319 N.2       1 <0>        -0.3360
     15 N5         -6.0764    5.1003    5.8026 N.pl3     1 <0>        -0.6876
     16 C9         -6.0841    5.5806    7.1866 C.3       1 <0>         0.1808
     17 C10        -7.5036    5.8431    7.6194 C.ar      1 <0>        -0.1230
     18 C11        -8.0628    7.0934    7.4318 C.ar      1 <0>        -0.0661
     19 C12        -9.3660    7.3340    7.8239 C.ar      1 <0>        -0.1563
     20 C13       -10.1081    6.3252    8.4143 C.ar      1 <0>         0.1104
     21 C14        -9.5452    5.0748    8.6065 C.ar      1 <0>        -0.1563
     22 C15        -8.2436    4.8351    8.2088 C.ar      1 <0>        -0.0661
     23 F1        -11.3806    6.5605    8.8023 F         1 <0>        -0.1366
     24 H2          0.0021   -0.0041    0.0020 H         1 <0>         0.0618
     25 H3          1.0099    1.4631    0.0003 H         1 <0>         0.0604
     26 H4         -0.5399    1.4469   -0.8751 H         1 <0>         0.0582
     27 H5         -1.7514    1.2020    1.2746 H         1 <0>         0.0674
     28 H6         -0.2017    1.2182    2.1499 H         1 <0>         0.0751
     29 H7          0.2730    3.4864    1.2675 H         1 <0>         0.1108
     30 H8         -1.2768    3.4701    0.3922 H         1 <0>         0.0945
     31 H9          0.3355    3.8235    3.6133 H         1 <0>         0.1817
     32 H10        -6.9116    4.9991    5.3197 H         1 <0>         0.4187
     33 H11        -5.6401    4.8258    7.8357 H         1 <0>         0.0785
     34 H12        -5.5072    6.5029    7.2543 H         1 <0>         0.0785
     35 H13        -7.4824    7.8813    6.9749 H         1 <0>         0.1365
     36 H14        -9.8040    8.3096    7.6735 H         1 <0>         0.1391
     37 H15       -10.1233    4.2871    9.0667 H         1 <0>         0.1391
     38 H16        -7.8044    3.8598    8.3583 H         1 <0>         0.1365
@<TRIPOS>BOND
     1    1    2 1
     2    1   24 1
     3    1   25 1
     4    1   26 1
     5    2    3 1
     6    2   27 1
     7    2   28 1
     8    3    4 1
     9    3   29 1
    10    3   30 1
    11    4   10 1
    12    4    5 2
    13    5    6 1
    14    5   31 1
    15    6    7 2
    16    6    8 am
    17    8   14 1
    18    8    9 1
    19    9   10 1
    20    9   12 2
    21   10   11 1
    22   12   13 1
    23   13   14 2
    24   13   15 1
    25   15   16 1
    26   15   32 1
    27   16   17 1
    28   16   33 1
    29   16   34 1
    30   17   22 ar
    31   17   18 ar
    32   18   19 ar
    33   18   35 1
    34   19   20 ar
    35   19   36 1
    36   20   21 ar
    37   20   23 1
    38   21   22 ar
    39   21   37 1
    40   22   38 1
@<TRIPOS>MOLECULE
ZINC02433055
   55    58     0     0     0
SMALL
USER_CHARGES
2-diethylamino-1-[2-(2-naphthyl)-4-quinolyl]-ethanol
@<TRIPOS>ATOM
      1 C1          7.0053   11.3096   -1.5429 C.3       1 <0>        -0.1912
      2 C2          5.8645   11.9318   -0.7352 C.3       1 <0>        -0.0175
      3 C3          4.5056   12.0745   -2.7341 C.3       1 <0>        -0.0127
      4 C4          4.3757   13.5990   -2.7241 C.3       1 <0>        -0.1881
      5 C5          4.3482   10.1304   -1.2995 C.3       1 <0>        -0.0450
      6 C6          4.1837    9.6933    0.1575 C.3       1 <0>         0.1329
      7 H1          5.0504   10.0170    0.7339 H         1 <0>         0.1364
      8 C7          4.0699    8.1920    0.2218 C.ar      1 <0>        -0.0806
      9 C8          2.8501    7.5838    0.2474 C.ar      1 <0>        -0.1376
     10 C9          2.7687    6.1837    0.3069 C.ar      1 <0>         0.2138
     11 N1          3.8520    5.4313    0.3445 N.ar      1 <0>        -0.4543
     12 C10         5.0726    5.9723    0.3163 C.ar      1 <0>         0.1409
     13 C11         5.2214    7.3809    0.2565 C.ar      1 <0>        -0.0925
     14 C12         6.5081    7.9414    0.2334 C.ar      1 <0>        -0.1253
     15 C13         7.5987    7.1266    0.2678 C.ar      1 <0>        -0.0928
     16 C14         7.4552    5.7418    0.3266 C.ar      1 <0>        -0.0978
     17 C15         6.2234    5.1641    0.3509 C.ar      1 <0>        -0.0796
     18 C16         1.4356    5.5361    0.3342 C.ar      1 <0>        -0.0747
     19 C17         0.2757    6.3279    0.3008 C.ar      1 <0>        -0.1027
     20 C18        -0.9570    5.7591    0.3247 C.ar      1 <0>        -0.1019
     21 C19        -1.0844    4.3594    0.3836 C.ar      1 <0>        -0.0384
     22 C20        -2.3486    3.7469    0.4088 C.ar      1 <0>        -0.1129
     23 C21        -2.4399    2.3897    0.4607 C.ar      1 <0>        -0.1015
     24 C22        -1.2962    1.5943    0.5002 C.ar      1 <0>        -0.1131
     25 C23        -0.0548    2.1515    0.4773 C.ar      1 <0>        -0.0993
     26 C24         0.0793    3.5502    0.4183 C.ar      1 <0>        -0.0612
     27 C25         1.3442    4.1576    0.3927 C.ar      1 <0>        -0.0415
     28 O1          3.0020   10.2844    0.7017 O.3       1 <0>        -0.5417
     29 H2          7.9498   11.4753   -1.0248 H         1 <0>         0.1092
     30 H3          6.8327   10.2387   -1.6501 H         1 <0>         0.0790
     31 H4          7.0461   11.7715   -2.5294 H         1 <0>         0.0845
     32 H5          5.9773   13.0159   -0.7228 H         1 <0>         0.1348
     33 H6          5.8930   11.5518    0.2860 H         1 <0>         0.1276
     34 H7          5.4113   11.7906   -3.2701 H         1 <0>         0.1337
     35 H8          3.6382   11.6392   -3.2303 H         1 <0>         0.1284
     36 H9          3.4843   13.8840   -2.1653 H         1 <0>         0.0811
     37 H10         5.2557   14.0355   -2.2517 H         1 <0>         0.0804
     38 H11         4.2946   13.9635   -3.7481 H         1 <0>         0.1071
     39 H12         5.1985    9.6108   -1.7409 H         1 <0>         0.1463
     40 H13         3.4437    9.8857   -1.8565 H         1 <0>         0.1380
     41 H14         1.9484    8.1778    0.2217 H         1 <0>         0.1422
     42 H15         6.6326    9.0133    0.1875 H         1 <0>         0.1210
     43 H16         8.5880    7.5594    0.2493 H         1 <0>         0.1340
     44 H17         8.3358    5.1169    0.3530 H         1 <0>         0.1391
     45 H18         6.1296    4.0892    0.3969 H         1 <0>         0.1438
     46 H19         0.3656    7.4033    0.2559 H         1 <0>         0.1228
     47 H20        -1.8395    6.3811    0.2981 H         1 <0>         0.1335
     48 H21        -3.2441    4.3501    0.3825 H         1 <0>         0.1311
     49 H22        -3.4134    1.9224    0.4759 H         1 <0>         0.1286
     50 H23        -1.3965    0.5199    0.5452 H         1 <0>         0.1289
     51 H24         0.8229    1.5227    0.5047 H         1 <0>         0.1314
     52 H25         2.2389    3.5533    0.4189 H         1 <0>         0.1420
     53 H26         2.1900   10.0396    0.2370 H         1 <0>         0.3897
     54 N2          4.5580   11.5930   -1.3377 N.4       1 <0>        -0.3919
     55 H27         3.8135   12.0509   -0.7988 H         1 <0>         0.4336
@<TRIPOS>BOND
     1    1    2 1
     2    1   29 1
     3    1   30 1
     4    1   31 1
     5    2   32 1
     6    2   33 1
     7    2   54 1
     8    3    4 1
     9    3   34 1
    10    3   35 1
    11    3   54 1
    12    4   36 1
    13    4   37 1
    14    4   38 1
    15    5    6 1
    16    5   39 1
    17    5   40 1
    18    5   54 1
    19    6    7 1
    20    6    8 1
    21    6   28 1
    22    8   13 ar
    23    8    9 ar
    24    9   10 ar
    25    9   41 1
    26   10   11 ar
    27   10   18 1
    28   11   12 ar
    29   12   17 ar
    30   12   13 ar
    31   13   14 ar
    32   14   15 ar
    33   14   42 1
    34   15   16 ar
    35   15   43 1
    36   16   17 ar
    37   16   44 1
    38   17   45 1
    39   18   27 ar
    40   18   19 ar
    41   19   20 ar
    42   19   46 1
    43   20   21 ar
    44   20   47 1
    45   21   26 ar
    46   21   22 ar
    47   22   23 ar
    48   22   48 1
    49   23   24 ar
    50   23   49 1
    51   24   25 ar
    52   24   50 1
    53   25   26 ar
    54   25   51 1
    55   26   27 ar
    56   27   52 1
    57   28   53 1
    58   54   55 1
@<TRIPOS>MOLECULE
ZINC02242173
   26    27     0     0     0
SMALL
USER_CHARGES
methyl 2-(4-methyl-2-oxo-1,5,7,9-tetrazabicyclo[4.3.0]nona-3,6,8-trien-3-yl)acetate
@<TRIPOS>ATOM
      1 C1         -2.4952    0.8549    0.0186 C.3       1 <0>        -0.1300
      2 C2         -1.2022    1.6289    0.0166 C.2       1 <0>         0.2418
      3 C3         -1.2237    2.9811    0.0290 C.2       1 <0>        -0.2634
      4 C4         -0.0081    3.6973    0.0216 C.2       1 <0>         0.5766
      5 O1         -0.0150    4.9154    0.0286 O.2       1 <0>        -0.4776
      6 N1          1.1581    3.0281    0.0073 N.am      1 <0>        -0.3742
      7 C5          1.1723    1.6674   -0.0002 C.2       1 <0>         0.4996
      8 N2         -0.0111    0.9658    0.0074 N.pl3     1 <0>        -0.5789
      9 H1          0.0025   -0.0341    0.0062 H         1 <0>         0.4504
     10 N3          2.4325    1.2847   -0.0143 N.2       1 <0>        -0.5410
     11 C6          3.2282    2.3532   -0.0161 C.2       1 <0>         0.2467
     12 N4          2.4984    3.4383   -0.0033 N.2       1 <0>        -0.2828
     13 C7         -2.5380    3.7183    0.0450 C.3       1 <0>        -0.0353
     14 C8         -2.9024    4.0645    1.4657 C.2       1 <0>         0.4612
     15 O2         -2.1701    3.7453    2.3722 O.2       1 <0>        -0.5009
     16 O3         -4.0406    4.7274    1.7241 O.3       1 <0>        -0.3575
     17 C9         -4.3275    5.0272    3.1156 C.3       1 <0>         0.0353
     18 H2         -2.2791   -0.2135    0.0117 H         1 <0>         0.0906
     19 H3         -3.0666    1.1043    0.9126 H         1 <0>         0.1045
     20 H4         -3.0751    1.1139   -0.8673 H         1 <0>         0.1114
     21 H5          4.3079    2.3273   -0.0269 H         1 <0>         0.2388
     22 H6         -2.4484    4.6334   -0.5403 H         1 <0>         0.1276
     23 H7         -3.3145    3.0861   -0.3855 H         1 <0>         0.1255
     24 H8         -3.5289    5.6451    3.5262 H         1 <0>         0.0639
     25 H9         -5.2738    5.5637    3.1840 H         1 <0>         0.1042
     26 H10        -4.3950    4.0978    3.6811 H         1 <0>         0.0636
@<TRIPOS>BOND
     1    1    2 1
     2    1   18 1
     3    1   19 1
     4    1   20 1
     5    2    8 1
     6    2    3 2
     7    3    4 1
     8    3   13 1
     9    4    5 2
    10    4    6 am
    11    6   12 1
    12    6    7 1
    13    7    8 1
    14    7   10 2
    15    8    9 1
    16   10   11 1
    17   11   12 2
    18   11   21 1
    19   13   14 1
    20   13   22 1
    21   13   23 1
    22   14   15 2
    23   14   16 1
    24   16   17 1
    25   17   24 1
    26   17   25 1
    27   17   26 1
@<TRIPOS>MOLECULE
ZINC00543570
   42    44     0     0     0
SMALL
USER_CHARGES
5-methoxy-2-[4-(3-methoxyphenoxy)-5-methyl-1H-pyrazol-3-yl]-phenol
@<TRIPOS>ATOM
      1 C1          4.0316    6.1944   -2.5308 C.3       1 <0>        -0.0958
      2 C2          4.4612    6.3843   -1.0988 C.2       1 <0>         0.0981
      3 C3          3.7523    6.0328    0.0000 C.2       1 <0>        -0.0643
      4 C4          4.5102    6.3908    1.1354 C.2       1 <0>         0.1306
      5 N1          5.6379    6.9288    0.7205 N.2       1 <0>        -0.2483
      6 N2          5.6292    6.9396   -0.6801 N.pl3     1 <0>        -0.4689
      7 H1          6.3554    7.2939   -1.2692 H         1 <0>         0.4548
      8 C5          4.1083    6.1916    2.5492 C.ar      1 <0>        -0.0916
      9 C6          2.8798    5.6078    2.8507 C.ar      1 <0>        -0.0346
     10 C7          2.5107    5.4189    4.1662 C.ar      1 <0>        -0.2182
     11 C8          3.3561    5.8188    5.1928 C.ar      1 <0>         0.1588
     12 C9          4.5783    6.4059    4.9011 C.ar      1 <0>        -0.1866
     13 C10         4.9590    6.5945    3.5833 C.ar      1 <0>         0.1790
     14 O1          6.1557    7.1699    3.2958 O.3       1 <0>        -0.4775
     15 O2          2.9847    5.6348    6.4869 O.3       1 <0>        -0.3135
     16 C11         1.7132    5.0243    6.7164 C.3       1 <0>         0.0246
     17 O3          2.5244    5.4442    0.0081 O.3       1 <0>        -0.2172
     18 C12         2.4677    4.0868    0.0009 C.ar      1 <0>         0.1513
     19 C13         3.6395    3.3425   -0.0138 C.ar      1 <0>        -0.2223
     20 C14         3.5823    1.9622   -0.0206 C.ar      1 <0>        -0.0424
     21 C15         2.3592    1.3189   -0.0076 C.ar      1 <0>        -0.2398
     22 C16         1.1850    2.0582    0.0018 C.ar      1 <0>         0.1637
     23 C17         1.2394    3.4435    0.0087 C.ar      1 <0>        -0.1843
     24 O4         -0.0173    1.4248    0.0099 O.3       1 <0>        -0.3139
     25 C18         0.0021   -0.0041    0.0020 C.3       1 <0>         0.0270
     26 H2          3.4844    7.0756   -2.8658 H         1 <0>         0.0896
     27 H3          4.9115    6.0528   -3.1584 H         1 <0>         0.0779
     28 H4          3.3882    5.3176   -2.6039 H         1 <0>         0.0887
     29 H5          2.2184    5.2996    2.0545 H         1 <0>         0.1423
     30 H6          1.5598    4.9625    4.3985 H         1 <0>         0.1360
     31 H7          5.2330    6.7164    5.7019 H         1 <0>         0.1418
     32 H8          6.1201    8.1330    3.2164 H         1 <0>         0.3943
     33 H9          0.9299    5.6379    6.2713 H         1 <0>         0.0591
     34 H10         1.6992    4.0328    6.2638 H         1 <0>         0.0585
     35 H11         1.5405    4.9366    7.7890 H         1 <0>         0.1031
     36 H12         4.5966    3.8429   -0.0195 H         1 <0>         0.1254
     37 H13         4.4950    1.3849   -0.0317 H         1 <0>         0.1272
     38 H14         2.3173    0.2397   -0.0088 H         1 <0>         0.1299
     39 H15         0.3266    4.0207    0.0205 H         1 <0>         0.1405
     40 H16         0.5123   -0.3556   -0.8948 H         1 <0>         0.0573
     41 H17         0.5293   -0.3651    0.8851 H         1 <0>         0.0573
     42 H18        -1.0205   -0.3814    0.0098 H         1 <0>         0.1023
@<TRIPOS>BOND
     1    1    2 1
     2    1   26 1
     3    1   27 1
     4    1   28 1
     5    2    6 1
     6    2    3 2
     7    3    4 1
     8    3   17 1
     9    4    5 2
    10    4    8 1
    11    5    6 1
    12    6    7 1
    13    8   13 ar
    14    8    9 ar
    15    9   10 ar
    16    9   29 1
    17   10   11 ar
    18   10   30 1
    19   11   12 ar
    20   11   15 1
    21   12   13 ar
    22   12   31 1
    23   13   14 1
    24   14   32 1
    25   15   16 1
    26   16   33 1
    27   16   34 1
    28   16   35 1
    29   17   18 1
    30   18   23 ar
    31   18   19 ar
    32   19   20 ar
    33   19   36 1
    34   20   21 ar
    35   20   37 1
    36   21   22 ar
    37   21   38 1
    38   22   23 ar
    39   22   24 1
    40   23   39 1
    41   24   25 1
    42   25   40 1
    43   25   41 1
    44   25   42 1
@<TRIPOS>MOLECULE
ZINC02242391
   44    45     0     0     0
SMALL
USER_CHARGES
N-[(2-hydroxy-8-methyl-3-quinolyl)methyl]-N-(2-methoxyethyl)propanamide
@<TRIPOS>ATOM
      1 C1          6.8118    2.3773   -3.4277 C.3       1 <0>        -0.1382
      2 C2          6.1328    2.8505   -2.1407 C.3       1 <0>        -0.1487
      3 C3          5.5593    4.2278   -2.3525 C.2       1 <0>         0.5223
      4 O1          5.5902    4.7348   -3.4539 O.2       1 <0>        -0.5109
      5 N1          5.0119    4.8962   -1.3181 N.am      1 <0>        -0.6182
      6 C4          4.5581    6.2777   -1.4966 C.3       1 <0>         0.1030
      7 C5          5.7063    7.2371   -1.1767 C.3       1 <0>         0.0413
      8 O2          6.7561    7.0580   -2.1296 O.3       1 <0>        -0.3734
      9 C6          7.8830    7.9112   -1.9200 C.3       1 <0>         0.0308
     10 C7          4.8708    4.2415   -0.0152 C.3       1 <0>         0.1452
     11 C8          3.5756    3.4720    0.0226 C.ar      1 <0>        -0.2311
     12 C9          3.5774    2.1222   -0.1694 C.ar      1 <0>        -0.0076
     13 C10         2.3451    1.4404   -0.1254 C.ar      1 <0>        -0.1312
     14 C11         2.2731    0.0513   -0.3148 C.ar      1 <0>        -0.0901
     15 C12         1.0637   -0.5731   -0.2664 C.ar      1 <0>        -0.1203
     16 C13        -0.1042    0.1490   -0.0312 C.ar      1 <0>        -0.0917
     17 C14        -0.0702    1.4962    0.1599 C.ar      1 <0>        -0.0693
     18 C15         1.1590    2.1763    0.1149 C.ar      1 <0>         0.1745
     19 N2          1.2208    3.5003    0.2952 N.ar      1 <0>        -0.4919
     20 C16         2.3683    4.1424    0.2526 C.ar      1 <0>         0.3697
     21 O3          2.3826    5.4848    0.4410 O.3       1 <0>        -0.4530
     22 C17        -1.3467    2.2571    0.4097 C.3       1 <0>        -0.1093
     23 H1          7.2266    1.3810   -3.2745 H         1 <0>         0.0620
     24 H2          6.0794    2.3458   -4.2345 H         1 <0>         0.0628
     25 H3          7.6129    3.0680   -3.6909 H         1 <0>         0.0626
     26 H4          6.8652    2.8818   -1.3340 H         1 <0>         0.0923
     27 H5          5.3317    2.1598   -1.8775 H         1 <0>         0.0909
     28 H6          4.2385    6.4247   -2.5283 H         1 <0>         0.1032
     29 H7          3.7222    6.4750   -0.8255 H         1 <0>         0.0904
     30 H8          5.3450    8.2644   -1.2230 H         1 <0>         0.0629
     31 H9          6.0848    7.0298   -0.1759 H         1 <0>         0.0512
     32 H10         8.3068    7.7180   -0.9346 H         1 <0>         0.0389
     33 H11         8.6351    7.7140   -2.6838 H         1 <0>         0.0860
     34 H12         7.5669    8.9525   -1.9817 H         1 <0>         0.0413
     35 H13         4.8687    4.9954    0.7720 H         1 <0>         0.0928
     36 H14         5.7049    3.5567    0.1396 H         1 <0>         0.1061
     37 H15         4.4993    1.5895   -0.3505 H         1 <0>         0.1466
     38 H16         3.1716   -0.5189   -0.4979 H         1 <0>         0.1312
     39 H17         1.0094   -1.6417   -0.4128 H         1 <0>         0.1300
     40 H18        -1.0514   -0.3688    0.0026 H         1 <0>         0.1322
     41 H19         3.3227    5.8201    0.3791 H         1 <0>         0.3979
     42 H20        -1.5426    2.2963    1.4813 H         1 <0>         0.0722
     43 H21        -1.2476    3.2707    0.0213 H         1 <0>         0.0782
     44 H22        -2.1734    1.7548   -0.0927 H         1 <0>         0.0664
@<TRIPOS>BOND
     1    1    2 1
     2    1   23 1
     3    1   24 1
     4    1   25 1
     5    2    3 1
     6    2   26 1
     7    2   27 1
     8    3    4 2
     9    3    5 am
    10    5    6 1
    11    5   10 1
    12    6    7 1
    13    6   28 1
    14    6   29 1
    15    7    8 1
    16    7   30 1
    17    7   31 1
    18    8    9 1
    19    9   32 1
    20    9   33 1
    21    9   34 1
    22   10   11 1
    23   10   35 1
    24   10   36 1
    25   11   20 ar
    26   11   12 ar
    27   12   37 1
    28   12   13 ar
    29   13   14 ar
    30   13   18 ar
    31   14   15 ar
    32   14   38 1
    33   15   16 ar
    34   15   39 1
    35   16   17 ar
    36   16   40 1
    37   17   18 ar
    38   17   22 1
    39   18   19 ar
    40   19   20 ar
    41   20   21 1
    42   21   41 1
    43   22   42 1
    44   22   43 1
    45   22   44 1
@<TRIPOS>MOLECULE
ZINC05343487
   40    41     0     0     0
SMALL
USER_CHARGES
4-acetyl-3-hydroxy-1-(hydroxymethyl)-5-(4-isopropylphenyl)-5H-pyrrol-2-one
@<TRIPOS>ATOM
      1 C1          5.4166    4.3882   -1.3440 C.3       1 <0>        -0.1443
      2 C2          5.3856    3.2817   -0.2878 C.3       1 <0>        -0.0605
      3 C3          5.7846    3.8620    1.0706 C.3       1 <0>        -0.1443
      4 C4          3.9942    2.7096   -0.2004 C.ar      1 <0>        -0.0661
      5 C5          3.7807    1.3687   -0.4601 C.ar      1 <0>        -0.1156
      6 C6          2.5044    0.8439   -0.3799 C.ar      1 <0>        -0.0729
      7 C7          1.4415    1.6598   -0.0401 C.ar      1 <0>        -0.1119
      8 C8          1.6543    3.0018    0.2145 C.ar      1 <0>        -0.1092
      9 C9          2.9314    3.5254    0.1399 C.ar      1 <0>        -0.1166
     10 C10         0.0501    1.0877    0.0468 C.3       1 <0>         0.2517
     11 H1         -0.6850    1.8924    0.0639 H         1 <0>         0.0993
     12 C11        -0.0843    0.2353    1.2869 C.2       1 <0>        -0.4602
     13 C12        -0.3852   -1.0189    0.8683 C.2       1 <0>         0.3225
     14 C13        -0.4567   -1.0321   -0.6095 C.2       1 <0>         0.5126
     15 O1         -0.7072   -2.0090   -1.2868 O.2       1 <0>        -0.4781
     16 N1         -0.2022    0.1987   -1.0931 N.am      1 <0>        -0.5924
     17 C14        -0.1813    0.5831   -2.5066 C.3       1 <0>         0.3265
     18 O2          1.0167    0.0963   -3.1150 O.3       1 <0>        -0.5816
     19 O3         -0.5878   -2.0863    1.6724 O.2       1 <0>        -0.5414
     20 C15         0.0733    0.6630    2.6265 C.2       1 <0>         0.3720
     21 O4          0.0585   -0.1490    3.5286 O.3       1 <0>        -0.3580
     22 C16         0.2595    2.1266    2.9332 C.3       1 <0>        -0.1548
     23 H2          4.7166    5.1760   -1.0656 H         1 <0>         0.0569
     24 H3          6.4230    4.8021   -1.4072 H         1 <0>         0.0589
     25 H4          5.1323    3.9749   -2.3117 H         1 <0>         0.0559
     26 H5          6.0856    2.4940   -0.5661 H         1 <0>         0.0774
     27 H6          6.7910    4.2758    1.0074 H         1 <0>         0.0591
     28 H7          5.0846    4.6498    1.3489 H         1 <0>         0.0571
     29 H8          5.7625    3.0737    1.8230 H         1 <0>         0.0555
     30 H9          4.6110    0.7313   -0.7259 H         1 <0>         0.1206
     31 H10         2.3375   -0.2036   -0.5832 H         1 <0>         0.1164
     32 H11         0.8233    3.6402    0.4757 H         1 <0>         0.1246
     33 H12         3.0983    4.5729    0.3431 H         1 <0>         0.1232
     34 H13        -1.0460    0.1541   -3.0127 H         1 <0>         0.0725
     35 H14        -0.2146    1.6696   -2.5882 H         1 <0>         0.0764
     36 H15         1.0979    0.3147   -4.0535 H         1 <0>         0.3952
     37 H16        -0.0734   -1.0652    3.1502 H         1 <0>         0.4438
     38 H17         0.1461    2.7070    2.0176 H         1 <0>         0.1068
     39 H18        -0.4889    2.4438    3.6595 H         1 <0>         0.1103
     40 H19         1.2561    2.2878    3.3445 H         1 <0>         0.1125
@<TRIPOS>BOND
     1    1    2 1
     2    1   23 1
     3    1   24 1
     4    1   25 1
     5    2    3 1
     6    2    4 1
     7    2   26 1
     8    3   27 1
     9    3   28 1
    10    3   29 1
    11    4    9 ar
    12    4    5 ar
    13    5    6 ar
    14    5   30 1
    15    6    7 ar
    16    6   31 1
    17    7    8 ar
    18    7   10 1
    19    8    9 ar
    20    8   32 1
    21    9   33 1
    22   10   11 1
    23   10   16 1
    24   10   12 1
    25   12   13 1
    26   12   20 2
    27   13   14 1
    28   13   19 2
    29   14   15 2
    30   14   16 am
    31   16   17 1
    32   17   18 1
    33   17   34 1
    34   17   35 1
    35   18   36 1
    36   20   22 1
    37   20   21 1
    38   21   37 1
    39   22   38 1
    40   22   39 1
    41   22   40 1
@<TRIPOS>MOLECULE
ZINC05343487
   40    41     0     0     0
SMALL
USER_CHARGES
4-acetyl-3-hydroxy-1-(hydroxymethyl)-5-(4-isopropylphenyl)-5H-pyrrol-2-one
@<TRIPOS>ATOM
      1 C1          5.4166    4.3882   -1.3440 C.3       1 <0>        -0.1446
      2 C2          5.3856    3.2817   -0.2878 C.3       1 <0>        -0.0611
      3 C3          5.7846    3.8620    1.0706 C.3       1 <0>        -0.1449
      4 C4          3.9942    2.7096   -0.2004 C.ar      1 <0>        -0.0632
      5 C5          3.7807    1.3687   -0.4601 C.ar      1 <0>        -0.1119
      6 C6          2.5044    0.8439   -0.3799 C.ar      1 <0>        -0.0653
      7 C7          1.4415    1.6598   -0.0401 C.ar      1 <0>        -0.1271
      8 C8          1.6543    3.0018    0.2145 C.ar      1 <0>        -0.1253
      9 C9          2.9314    3.5254    0.1399 C.ar      1 <0>        -0.1107
     10 C10         0.0501    1.0877    0.0468 C.3       1 <0>         0.2375
     11 H1         -0.6850    1.8924    0.0639 H         1 <0>         0.0956
     12 C11        -0.0843    0.2353    1.2869 C.2       1 <0>        -0.4623
     13 C12        -0.3852   -1.0189    0.8683 C.2       1 <0>         0.3412
     14 C13        -0.4567   -1.0321   -0.6095 C.2       1 <0>         0.5100
     15 O1         -0.7072   -2.0090   -1.2868 O.2       1 <0>        -0.4773
     16 N1         -0.2022    0.1987   -1.0931 N.am      1 <0>        -0.5907
     17 C14        -0.1813    0.5831   -2.5066 C.3       1 <0>         0.3263
     18 O2          1.0167    0.0963   -3.1150 O.3       1 <0>        -0.5816
     19 O3         -0.5878   -2.0863    1.6724 O.2       1 <0>        -0.5117
     20 C15         0.0733    0.6630    2.6265 C.2       1 <0>         0.3566
     21 O4          0.2233    1.8419    2.8736 O.3       1 <0>        -0.3586
     22 C16         0.0549   -0.3451    3.7464 C.3       1 <0>        -0.1681
     23 H2          4.7166    5.1760   -1.0656 H         1 <0>         0.0569
     24 H3          6.4230    4.8021   -1.4072 H         1 <0>         0.0600
     25 H4          5.1323    3.9749   -2.3117 H         1 <0>         0.0563
     26 H5          6.0856    2.4940   -0.5661 H         1 <0>         0.0789
     27 H6          6.7910    4.2758    1.0074 H         1 <0>         0.0602
     28 H7          5.0846    4.6498    1.3489 H         1 <0>         0.0571
     29 H8          5.7625    3.0737    1.8230 H         1 <0>         0.0561
     30 H9          4.6110    0.7313   -0.7259 H         1 <0>         0.1236
     31 H10         2.3375   -0.2036   -0.5832 H         1 <0>         0.1203
     32 H11         0.8233    3.6402    0.4757 H         1 <0>         0.1242
     33 H12         3.0983    4.5729    0.3431 H         1 <0>         0.1256
     34 H13        -1.0460    0.1541   -3.0127 H         1 <0>         0.0734
     35 H14        -0.2146    1.6696   -2.5882 H         1 <0>         0.0753
     36 H15         1.0979    0.3147   -4.0535 H         1 <0>         0.3954
     37 H16         0.2105    2.3653    2.0216 H         1 <0>         0.4232
     38 H17         0.0115   -1.3511    3.3291 H         1 <0>         0.1397
     39 H18         0.9593   -0.2391    4.3457 H         1 <0>         0.1029
     40 H19        -0.8193   -0.1744    4.3748 H         1 <0>         0.1080
@<TRIPOS>BOND
     1    1    2 1
     2    1   23 1
     3    1   24 1
     4    1   25 1
     5    2    3 1
     6    2    4 1
     7    2   26 1
     8    3   27 1
     9    3   28 1
    10    3   29 1
    11    4    9 ar
    12    4    5 ar
    13    5    6 ar
    14    5   30 1
    15    6    7 ar
    16    6   31 1
    17    7    8 ar
    18    7   10 1
    19    8    9 ar
    20    8   32 1
    21    9   33 1
    22   10   11 1
    23   10   16 1
    24   10   12 1
    25   12   13 1
    26   12   20 2
    27   13   14 1
    28   13   19 2
    29   14   15 2
    30   14   16 am
    31   16   17 1
    32   17   18 1
    33   17   34 1
    34   17   35 1
    35   18   36 1
    36   20   22 1
    37   20   21 1
    38   21   37 1
    39   22   38 1
    40   22   39 1
    41   22   40 1
@<TRIPOS>MOLECULE
ZINC05343487
   40    41     0     0     0
SMALL
USER_CHARGES
4-acetyl-3-hydroxy-1-(hydroxymethyl)-5-(4-isopropylphenyl)-5H-pyrrol-2-one
@<TRIPOS>ATOM
      1 C1          5.4166    4.3882   -1.3440 C.3       1 <0>        -0.1447
      2 C2          5.3856    3.2817   -0.2878 C.3       1 <0>        -0.0624
      3 C3          5.7846    3.8620    1.0706 C.3       1 <0>        -0.1457
      4 C4          3.9942    2.7096   -0.2004 C.ar      1 <0>        -0.0554
      5 C5          3.7807    1.3687   -0.4601 C.ar      1 <0>        -0.1127
      6 C6          2.5044    0.8439   -0.3799 C.ar      1 <0>        -0.0819
      7 C7          1.4415    1.6598   -0.0401 C.ar      1 <0>        -0.1404
      8 C8          1.6543    3.0018    0.2145 C.ar      1 <0>        -0.0914
      9 C9          2.9314    3.5254    0.1399 C.ar      1 <0>        -0.1150
     10 C10         0.0501    1.0877    0.0468 C.3       1 <0>         0.2109
     11 H1         -0.6850    1.8924    0.0639 H         1 <0>         0.1293
     12 C11        -0.0843    0.2353    1.2869 C.3       1 <0>        -0.2226
     13 C12        -0.3857   -1.0188    0.8683 C.2       1 <0>         0.3102
     14 C13        -0.4570   -1.0320   -0.6095 C.2       1 <0>         0.5081
     15 O1         -0.7079   -2.0088   -1.2868 O.2       1 <0>        -0.4528
     16 N1         -0.2018    0.1986   -1.0931 N.am      1 <0>        -0.5886
     17 C14        -0.1805    0.5829   -2.5066 C.3       1 <0>         0.3275
     18 O2          1.0173    0.0955   -3.1148 O.3       1 <0>        -0.5818
     19 O3         -0.5890   -2.0860    1.6725 O.2       1 <0>        -0.4222
     20 C15         0.0733    0.6630    2.6265 C.2       1 <0>         0.4024
     21 O4          0.0586   -0.1490    3.5286 O.2       1 <0>        -0.4336
     22 C16         0.2595    2.1266    2.9332 C.3       1 <0>        -0.1994
     23 H2          4.7166    5.1760   -1.0656 H         1 <0>         0.0579
     24 H3          6.4230    4.8021   -1.4072 H         1 <0>         0.0606
     25 H4          5.1323    3.9749   -2.3117 H         1 <0>         0.0565
     26 H5          6.0856    2.4940   -0.5661 H         1 <0>         0.0793
     27 H6          6.7910    4.2758    1.0074 H         1 <0>         0.0609
     28 H7          5.0846    4.6498    1.3489 H         1 <0>         0.0583
     29 H8          5.7625    3.0737    1.8230 H         1 <0>         0.0564
     30 H9          4.6110    0.7313   -0.7259 H         1 <0>         0.1251
     31 H10         2.3375   -0.2036   -0.5832 H         1 <0>         0.1176
     32 H11         0.8233    3.6402    0.4757 H         1 <0>         0.1326
     33 H12         3.0983    4.5729    0.3431 H         1 <0>         0.1285
     34 H13        -1.0454    0.1543   -3.0128 H         1 <0>         0.0788
     35 H14        -0.2133    1.6694   -2.5883 H         1 <0>         0.0830
     36 H15         1.0988    0.3138   -4.0533 H         1 <0>         0.3992
     37 H16         0.8050   -0.1593    1.5181 H         1 <0>         0.1679
     38 H17         0.1461    2.7070    2.0176 H         1 <0>         0.0889
     39 H18        -0.4889    2.4438    3.6595 H         1 <0>         0.1091
     40 H19         1.2561    2.2878    3.3445 H         1 <0>         0.1016
@<TRIPOS>BOND
     1    1    2 1
     2    1   23 1
     3    1   24 1
     4    1   25 1
     5    2    3 1
     6    2    4 1
     7    2   26 1
     8    3   27 1
     9    3   28 1
    10    3   29 1
    11    4    9 ar
    12    4    5 ar
    13    5    6 ar
    14    5   30 1
    15    6    7 ar
    16    6   31 1
    17    7    8 ar
    18    7   10 1
    19    8    9 ar
    20    8   32 1
    21    9   33 1
    22   10   11 1
    23   10   16 1
    24   10   12 1
    25   12   37 1
    26   12   13 1
    27   12   20 1
    28   13   14 1
    29   13   19 2
    30   14   15 2
    31   14   16 am
    32   16   17 1
    33   17   18 1
    34   17   34 1
    35   17   35 1
    36   18   36 1
    37   20   22 1
    38   20   21 2
    39   22   38 1
    40   22   39 1
    41   22   40 1
@<TRIPOS>MOLECULE
ZINC05343488
   40    41     0     0     0
SMALL
USER_CHARGES
4-acetyl-3-hydroxy-1-(hydroxymethyl)-5-(4-isopropylphenyl)-5H-pyrrol-2-one
@<TRIPOS>ATOM
      1 C1         -1.4995    7.1546   -5.2623 C.3       1 <0>        -0.1452
      2 C2         -2.6178    6.2921   -4.6737 C.3       1 <0>        -0.0591
      3 C3         -3.0689    5.2634   -5.7125 C.3       1 <0>        -0.1455
      4 C4         -2.1093    5.5783   -3.4477 C.ar      1 <0>        -0.0671
      5 C5         -2.7154    5.7898   -2.2235 C.ar      1 <0>        -0.1210
      6 C6         -2.2486    5.1354   -1.0989 C.ar      1 <0>        -0.1093
      7 C7         -1.1757    4.2694   -1.1985 C.ar      1 <0>        -0.1124
      8 C8         -0.5663    4.0619   -2.4218 C.ar      1 <0>        -0.0737
      9 C9         -1.0364    4.7123   -3.5474 C.ar      1 <0>        -0.1121
     10 C10        -0.6666    3.5563    0.0275 C.3       1 <0>         0.2521
     11 H1         -1.0178    4.0615    0.9273 H         1 <0>         0.1000
     12 C11        -1.1315    2.1188    0.0183 C.2       1 <0>        -0.4597
     13 C12        -0.0163    1.3474    0.0068 C.2       1 <0>         0.3225
     14 C13         1.1773    2.2219    0.0011 C.2       1 <0>         0.5129
     15 O1          2.3276    1.8316   -0.0131 O.2       1 <0>        -0.4782
     16 N1          0.8002    3.5132    0.0150 N.am      1 <0>        -0.5923
     17 C14         1.6961    4.6723    0.0142 C.3       1 <0>         0.3262
     18 O2          2.2498    4.8455   -1.2917 O.3       1 <0>        -0.5815
     19 O3          0.0021   -0.0041   -0.0038 O.2       1 <0>        -0.5411
     20 C15        -2.4718    1.6649    0.0211 C.2       1 <0>         0.3713
     21 O4         -2.7095    0.4747    0.0157 O.3       1 <0>        -0.3582
     22 C16        -3.6040    2.6594    0.0308 C.3       1 <0>        -0.1528
     23 H2         -0.6564    6.5199   -5.5350 H         1 <0>         0.0571
     24 H3         -1.8673    7.6709   -6.1490 H         1 <0>         0.0589
     25 H4         -1.1781    7.8875   -4.5222 H         1 <0>         0.0559
     26 H5         -3.4609    6.9269   -4.4009 H         1 <0>         0.0778
     27 H6         -2.2258    4.6287   -5.9852 H         1 <0>         0.0569
     28 H7         -3.8656    4.6490   -5.2931 H         1 <0>         0.0556
     29 H8         -3.4368    5.7797   -6.5992 H         1 <0>         0.0593
     30 H9         -3.5533    6.4667   -2.1456 H         1 <0>         0.1232
     31 H10        -2.7219    5.3009   -0.1423 H         1 <0>         0.1246
     32 H11         0.2747    3.3887   -2.4989 H         1 <0>         0.1179
     33 H12        -0.5626    4.5473   -4.5038 H         1 <0>         0.1204
     34 H13         1.1357    5.5649    0.2926 H         1 <0>         0.0765
     35 H14         2.5007    4.5101    0.7315 H         1 <0>         0.0726
     36 H15         2.8542    5.5967   -1.3662 H         1 <0>         0.3953
     37 H16        -1.8502   -0.0368    0.0096 H         1 <0>         0.4432
     38 H17        -3.8810    2.9047   -0.9945 H         1 <0>         0.1178
     39 H18        -4.4624    2.2277    0.5456 H         1 <0>         0.1023
     40 H19        -3.2877    3.5651    0.5482 H         1 <0>         0.1091
@<TRIPOS>BOND
     1    1    2 1
     2    1   23 1
     3    1   24 1
     4    1   25 1
     5    2    3 1
     6    2    4 1
     7    2   26 1
     8    3   27 1
     9    3   28 1
    10    3   29 1
    11    4    9 ar
    12    4    5 ar
    13    5    6 ar
    14    5   30 1
    15    6    7 ar
    16    6   31 1
    17    7    8 ar
    18    7   10 1
    19    8    9 ar
    20    8   32 1
    21    9   33 1
    22   10   11 1
    23   10   16 1
    24   10   12 1
    25   12   13 1
    26   12   20 2
    27   13   14 1
    28   13   19 2
    29   14   15 2
    30   14   16 am
    31   16   17 1
    32   17   18 1
    33   17   34 1
    34   17   35 1
    35   18   36 1
    36   20   22 1
    37   20   21 1
    38   21   37 1
    39   22   38 1
    40   22   39 1
    41   22   40 1
@<TRIPOS>MOLECULE
ZINC05343488
   40    41     0     0     0
SMALL
USER_CHARGES
4-acetyl-3-hydroxy-1-(hydroxymethyl)-5-(4-isopropylphenyl)-5H-pyrrol-2-one
@<TRIPOS>ATOM
      1 C1         -1.4995    7.1546   -5.2623 C.3       1 <0>        -0.1456
      2 C2         -2.6178    6.2921   -4.6737 C.3       1 <0>        -0.0598
      3 C3         -3.0689    5.2634   -5.7125 C.3       1 <0>        -0.1462
      4 C4         -2.1093    5.5783   -3.4477 C.ar      1 <0>        -0.0645
      5 C5         -2.7154    5.7898   -2.2235 C.ar      1 <0>        -0.1109
      6 C6         -2.2486    5.1354   -1.0989 C.ar      1 <0>        -0.1328
      7 C7         -1.1757    4.2694   -1.1985 C.ar      1 <0>        -0.1281
      8 C8         -0.5663    4.0619   -2.4218 C.ar      1 <0>        -0.0663
      9 C9         -1.0364    4.7123   -3.5474 C.ar      1 <0>        -0.1059
     10 C10        -0.6666    3.5563    0.0275 C.3       1 <0>         0.2367
     11 H1         -1.0178    4.0615    0.9273 H         1 <0>         0.0977
     12 C11        -1.1315    2.1188    0.0183 C.2       1 <0>        -0.4607
     13 C12        -0.0163    1.3474    0.0068 C.2       1 <0>         0.3386
     14 C13         1.1773    2.2219    0.0011 C.2       1 <0>         0.5102
     15 O1          2.3276    1.8316   -0.0131 O.2       1 <0>        -0.4778
     16 N1          0.8002    3.5132    0.0150 N.am      1 <0>        -0.5907
     17 C14         1.6961    4.6723    0.0142 C.3       1 <0>         0.3257
     18 O2          2.2498    4.8455   -1.2917 O.3       1 <0>        -0.5818
     19 O3          0.0021   -0.0041   -0.0038 O.2       1 <0>        -0.5108
     20 C15        -2.4718    1.6649    0.0211 C.2       1 <0>         0.3516
     21 O4         -3.3838    2.4658    0.0289 O.3       1 <0>        -0.3610
     22 C16        -2.7668    0.1871    0.0144 C.3       1 <0>        -0.1510
     23 H2         -0.6564    6.5199   -5.5350 H         1 <0>         0.0576
     24 H3         -1.8673    7.6709   -6.1490 H         1 <0>         0.0603
     25 H4         -1.1781    7.8875   -4.5222 H         1 <0>         0.0561
     26 H5         -3.4609    6.9269   -4.4009 H         1 <0>         0.0792
     27 H6         -2.2258    4.6287   -5.9852 H         1 <0>         0.0576
     28 H7         -3.8656    4.6490   -5.2931 H         1 <0>         0.0563
     29 H8         -3.4368    5.7797   -6.5992 H         1 <0>         0.0606
     30 H9         -3.5533    6.4667   -2.1456 H         1 <0>         0.1269
     31 H10        -2.7219    5.3009   -0.1423 H         1 <0>         0.1258
     32 H11         0.2747    3.3887   -2.4989 H         1 <0>         0.1227
     33 H12        -0.5626    4.5473   -4.5038 H         1 <0>         0.1242
     34 H13         1.1357    5.5649    0.2926 H         1 <0>         0.0753
     35 H14         2.5007    4.5101    0.7315 H         1 <0>         0.0736
     36 H15         2.8542    5.5967   -1.3662 H         1 <0>         0.3955
     37 H16        -3.0121    3.3941    0.0324 H         1 <0>         0.4220
     38 H17        -2.8339   -0.1748    1.0404 H         1 <0>         0.1150
     39 H18        -3.7128    0.0077   -0.4966 H         1 <0>         0.0949
     40 H19        -1.9672   -0.3407   -0.5053 H         1 <0>         0.1299
@<TRIPOS>BOND
     1    1    2 1
     2    1   23 1
     3    1   24 1
     4    1   25 1
     5    2    3 1
     6    2    4 1
     7    2   26 1
     8    3   27 1
     9    3   28 1
    10    3   29 1
    11    4    9 ar
    12    4    5 ar
    13    5    6 ar
    14    5   30 1
    15    6    7 ar
    16    6   31 1
    17    7    8 ar
    18    7   10 1
    19    8    9 ar
    20    8   32 1
    21    9   33 1
    22   10   11 1
    23   10   16 1
    24   10   12 1
    25   12   13 1
    26   12   20 2
    27   13   14 1
    28   13   19 2
    29   14   15 2
    30   14   16 am
    31   16   17 1
    32   17   18 1
    33   17   34 1
    34   17   35 1
    35   18   36 1
    36   20   22 1
    37   20   21 1
    38   21   37 1
    39   22   38 1
    40   22   39 1
    41   22   40 1
@<TRIPOS>MOLECULE
ZINC05343488
   40    41     0     0     0
SMALL
USER_CHARGES
4-acetyl-3-hydroxy-1-(hydroxymethyl)-5-(4-isopropylphenyl)-5H-pyrrol-2-one
@<TRIPOS>ATOM
      1 C1         -1.4995    7.1546   -5.2623 C.3       1 <0>        -0.1456
      2 C2         -2.6178    6.2921   -4.6737 C.3       1 <0>        -0.0612
      3 C3         -3.0689    5.2634   -5.7125 C.3       1 <0>        -0.1467
      4 C4         -2.1093    5.5783   -3.4477 C.ar      1 <0>        -0.0561
      5 C5         -2.7154    5.7898   -2.2235 C.ar      1 <0>        -0.1192
      6 C6         -2.2486    5.1354   -1.0989 C.ar      1 <0>        -0.0912
      7 C7         -1.1757    4.2694   -1.1985 C.ar      1 <0>        -0.1420
      8 C8         -0.5663    4.0619   -2.4218 C.ar      1 <0>        -0.0813
      9 C9         -1.0364    4.7123   -3.5474 C.ar      1 <0>        -0.1104
     10 C10        -0.6666    3.5563    0.0275 C.3       1 <0>         0.2120
     11 H1         -1.0178    4.0615    0.9273 H         1 <0>         0.1295
     12 C11        -1.1315    2.1188    0.0183 C.3       1 <0>        -0.2187
     13 C12        -0.0163    1.3474    0.0095 C.2       1 <0>         0.3085
     14 C13         1.1773    2.2219    0.0027 C.2       1 <0>         0.5081
     15 O1          2.3276    1.8315   -0.0097 O.2       1 <0>        -0.4532
     16 N1          0.8002    3.5132    0.0133 N.am      1 <0>        -0.5887
     17 C14         1.6961    4.6723    0.0105 C.3       1 <0>         0.3272
     18 O2          2.2508    4.8425   -1.2954 O.3       1 <0>        -0.5818
     19 O3          0.0021   -0.0041    0.0020 O.2       1 <0>        -0.4217
     20 C15        -2.4718    1.6649    0.0211 C.2       1 <0>         0.3991
     21 O4         -2.7095    0.4747    0.0156 O.2       1 <0>        -0.4310
     22 C16        -3.6040    2.6594    0.0308 C.3       1 <0>        -0.1982
     23 H2         -0.6564    6.5199   -5.5350 H         1 <0>         0.0574
     24 H3         -1.8673    7.6709   -6.1490 H         1 <0>         0.0606
     25 H4         -1.1781    7.8875   -4.5222 H         1 <0>         0.0567
     26 H5         -3.4609    6.9269   -4.4009 H         1 <0>         0.0805
     27 H6         -2.2258    4.6287   -5.9852 H         1 <0>         0.0571
     28 H7         -3.8656    4.6490   -5.2931 H         1 <0>         0.0568
     29 H8         -3.4368    5.7797   -6.5992 H         1 <0>         0.0612
     30 H9         -3.5533    6.4667   -2.1456 H         1 <0>         0.1285
     31 H10        -2.7219    5.3009   -0.1423 H         1 <0>         0.1326
     32 H11         0.2747    3.3887   -2.4989 H         1 <0>         0.1197
     33 H12        -0.5626    4.5473   -4.5038 H         1 <0>         0.1248
     34 H13         1.1355    5.5655    0.2864 H         1 <0>         0.0831
     35 H14         2.5001    4.5118    0.7288 H         1 <0>         0.0789
     36 H15         2.8553    5.5935   -1.3711 H         1 <0>         0.3993
     37 H16        -1.2377    1.8089   -0.9265 H         1 <0>         0.1654
     38 H17        -3.8810    2.9047   -0.9945 H         1 <0>         0.1026
     39 H18        -4.4624    2.2277    0.5456 H         1 <0>         0.1030
     40 H19        -3.2877    3.5651    0.5482 H         1 <0>         0.0943
@<TRIPOS>BOND
     1    1    2 1
     2    1   23 1
     3    1   24 1
     4    1   25 1
     5    2    3 1
     6    2    4 1
     7    2   26 1
     8    3   27 1
     9    3   28 1
    10    3   29 1
    11    4    9 ar
    12    4    5 ar
    13    5    6 ar
    14    5   30 1
    15    6    7 ar
    16    6   31 1
    17    7    8 ar
    18    7   10 1
    19    8    9 ar
    20    8   32 1
    21    9   33 1
    22   10   11 1
    23   10   16 1
    24   10   12 1
    25   12   37 1
    26   12   13 1
    27   12   20 1
    28   13   14 1
    29   13   19 2
    30   14   15 2
    31   14   16 am
    32   16   17 1
    33   17   18 1
    34   17   34 1
    35   17   35 1
    36   18   36 1
    37   20   22 1
    38   20   21 2
    39   22   38 1
    40   22   39 1
    41   22   40 1
@<TRIPOS>MOLECULE
ZINC02323505
   55    58     0     0     0
SMALL
USER_CHARGES
2-diethylamino-1-[2-(2-naphthyl)-4-quinolyl]-ethanol
@<TRIPOS>ATOM
      1 C1          7.0053   11.3096   -1.5429 C.3       1 <0>        -0.1912
      2 C2          5.8645   11.9318   -0.7352 C.3       1 <0>        -0.0175
      3 C3          4.5056   12.0745   -2.7341 C.3       1 <0>        -0.0127
      4 C4          4.3757   13.5990   -2.7241 C.3       1 <0>        -0.1881
      5 C5          4.3482   10.1304   -1.2995 C.3       1 <0>        -0.0450
      6 C6          4.1837    9.6933    0.1575 C.3       1 <0>         0.1329
      7 H1          5.0504   10.0170    0.7339 H         1 <0>         0.1364
      8 C7          4.0699    8.1920    0.2218 C.ar      1 <0>        -0.0806
      9 C8          2.8501    7.5838    0.2474 C.ar      1 <0>        -0.1376
     10 C9          2.7687    6.1837    0.3069 C.ar      1 <0>         0.2138
     11 N1          3.8520    5.4313    0.3445 N.ar      1 <0>        -0.4543
     12 C10         5.0726    5.9723    0.3163 C.ar      1 <0>         0.1409
     13 C11         5.2214    7.3809    0.2565 C.ar      1 <0>        -0.0925
     14 C12         6.5081    7.9414    0.2334 C.ar      1 <0>        -0.1253
     15 C13         7.5987    7.1266    0.2678 C.ar      1 <0>        -0.0928
     16 C14         7.4552    5.7418    0.3266 C.ar      1 <0>        -0.0978
     17 C15         6.2234    5.1641    0.3509 C.ar      1 <0>        -0.0796
     18 C16         1.4356    5.5361    0.3342 C.ar      1 <0>        -0.0747
     19 C17         0.2757    6.3279    0.3008 C.ar      1 <0>        -0.1027
     20 C18        -0.9570    5.7591    0.3247 C.ar      1 <0>        -0.1019
     21 C19        -1.0844    4.3594    0.3836 C.ar      1 <0>        -0.0384
     22 C20        -2.3486    3.7469    0.4088 C.ar      1 <0>        -0.1129
     23 C21        -2.4399    2.3897    0.4607 C.ar      1 <0>        -0.1015
     24 C22        -1.2962    1.5943    0.5002 C.ar      1 <0>        -0.1131
     25 C23        -0.0548    2.1515    0.4773 C.ar      1 <0>        -0.0993
     26 C24         0.0793    3.5502    0.4183 C.ar      1 <0>        -0.0612
     27 C25         1.3442    4.1576    0.3927 C.ar      1 <0>        -0.0415
     28 O1          3.0020   10.2844    0.7017 O.3       1 <0>        -0.5417
     29 H2          7.9498   11.4753   -1.0248 H         1 <0>         0.1092
     30 H3          6.8327   10.2387   -1.6501 H         1 <0>         0.0790
     31 H4          7.0461   11.7715   -2.5294 H         1 <0>         0.0845
     32 H5          5.9773   13.0159   -0.7228 H         1 <0>         0.1348
     33 H6          5.8930   11.5518    0.2860 H         1 <0>         0.1276
     34 H7          5.4113   11.7906   -3.2701 H         1 <0>         0.1337
     35 H8          3.6382   11.6392   -3.2303 H         1 <0>         0.1284
     36 H9          3.4843   13.8840   -2.1653 H         1 <0>         0.0811
     37 H10         5.2557   14.0355   -2.2517 H         1 <0>         0.0804
     38 H11         4.2946   13.9635   -3.7481 H         1 <0>         0.1071
     39 H12         5.1985    9.6108   -1.7409 H         1 <0>         0.1463
     40 H13         3.4437    9.8857   -1.8565 H         1 <0>         0.1380
     41 H14         1.9484    8.1778    0.2217 H         1 <0>         0.1422
     42 H15         6.6326    9.0133    0.1875 H         1 <0>         0.1210
     43 H16         8.5880    7.5594    0.2493 H         1 <0>         0.1340
     44 H17         8.3358    5.1169    0.3530 H         1 <0>         0.1391
     45 H18         6.1296    4.0892    0.3969 H         1 <0>         0.1438
     46 H19         0.3656    7.4033    0.2559 H         1 <0>         0.1228
     47 H20        -1.8395    6.3811    0.2981 H         1 <0>         0.1335
     48 H21        -3.2441    4.3501    0.3825 H         1 <0>         0.1311
     49 H22        -3.4134    1.9224    0.4759 H         1 <0>         0.1286
     50 H23        -1.3965    0.5199    0.5452 H         1 <0>         0.1289
     51 H24         0.8229    1.5227    0.5047 H         1 <0>         0.1314
     52 H25         2.2389    3.5533    0.4189 H         1 <0>         0.1420
     53 H26         2.1900   10.0396    0.2370 H         1 <0>         0.3897
     54 N2          4.5580   11.5930   -1.3377 N.4       1 <0>        -0.3919
     55 H27         3.8135   12.0509   -0.7988 H         1 <0>         0.4336
@<TRIPOS>BOND
     1    1    2 1
     2    1   29 1
     3    1   30 1
     4    1   31 1
     5    2   32 1
     6    2   33 1
     7    2   54 1
     8    3    4 1
     9    3   34 1
    10    3   35 1
    11    3   54 1
    12    4   36 1
    13    4   37 1
    14    4   38 1
    15    5    6 1
    16    5   39 1
    17    5   40 1
    18    5   54 1
    19    6    7 1
    20    6    8 1
    21    6   28 1
    22    8   13 ar
    23    8    9 ar
    24    9   10 ar
    25    9   41 1
    26   10   11 ar
    27   10   18 1
    28   11   12 ar
    29   12   17 ar
    30   12   13 ar
    31   13   14 ar
    32   14   15 ar
    33   14   42 1
    34   15   16 ar
    35   15   43 1
    36   16   17 ar
    37   16   44 1
    38   17   45 1
    39   18   27 ar
    40   18   19 ar
    41   19   20 ar
    42   19   46 1
    43   20   21 ar
    44   20   47 1
    45   21   26 ar
    46   21   22 ar
    47   22   23 ar
    48   22   48 1
    49   23   24 ar
    50   23   49 1
    51   24   25 ar
    52   24   50 1
    53   25   26 ar
    54   25   51 1
    55   26   27 ar
    56   27   52 1
    57   28   53 1
    58   54   55 1
@<TRIPOS>MOLECULE
ZINC05343495
   42    45     0     0     0
SMALL
USER_CHARGES
3-(5-morpholino-2-furyl)-2-(4-oxo-3H-quinazolin-2-yl)-prop-2-enenitrile
@<TRIPOS>ATOM
      1 C1         -4.7968    5.6124    0.0771 C.ar      1 <0>        -0.1246
      2 C2         -3.5746    6.2727    0.0745 C.ar      1 <0>        -0.0740
      3 C3         -2.3995    5.5765    0.0605 C.ar      1 <0>        -0.1045
      4 C4         -2.4201    4.1778    0.0478 C.ar      1 <0>         0.1977
      5 C5         -3.6638    3.5045    0.0504 C.ar      1 <0>        -0.2558
      6 C6         -4.8503    4.2357    0.0656 C.ar      1 <0>        -0.0839
      7 C7         -3.6598    2.0350    0.0312 C.ar      1 <0>         0.4485
      8 O1         -4.6989    1.4010    0.0379 O.3       1 <0>        -0.3745
      9 N1         -2.4581    1.4125    0.0165 N.ar      1 <0>        -0.5706
     10 H1         -5.4744    2.0322    0.0486 H         1 <0>         0.4306
     11 C8         -1.2982    2.1443    0.0208 C.ar      1 <0>         0.4298
     12 N2         -1.2823    3.4578    0.0331 N.ar      1 <0>        -0.5470
     13 C9         -0.0173    1.4278    0.0113 C.2       1 <0>        -0.0465
     14 C10         1.1771    2.1392    0.0042 C.2       1 <0>         0.0831
     15 C11         2.3989    1.4558   -0.0107 C.2       1 <0>        -0.0626
     16 C12         3.6594    2.0386   -0.0247 C.2       1 <0>        -0.0949
     17 C13         4.5837    0.9959   -0.0342 C.2       1 <0>        -0.2341
     18 C14         3.8670   -0.1810   -0.0340 C.2       1 <0>         0.2201
     19 O2          2.5578    0.1125   -0.0198 O.3       1 <0>        -0.1739
     20 N3          4.4054   -1.4490   -0.0464 N.pl3     1 <0>        -0.4380
     21 C15         5.2997   -1.6304   -1.1992 C.3       1 <0>         0.0167
     22 C16         5.9208   -3.0285   -1.1412 C.3       1 <0>         0.0622
     23 O3          4.8781   -4.0068   -1.1055 O.3       1 <0>        -0.3797
     24 C17         3.9888   -3.8601    0.0048 C.3       1 <0>         0.0641
     25 C18         3.3481   -2.4704   -0.0415 C.3       1 <0>         0.0095
     26 C19         0.0021   -0.0041    0.0034 C.1       1 <0>         0.2679
     27 N4          0.0175   -1.1399   -0.0028 N.1       1 <0>        -0.4089
     28 H2         -5.7135    6.1834    0.0889 H         1 <0>         0.1345
     29 H3         -3.5531    7.3524    0.0835 H         1 <0>         0.1364
     30 H4         -1.4573    6.1043    0.0585 H         1 <0>         0.1432
     31 H5         -5.8033    3.7276    0.0677 H         1 <0>         0.1300
     32 H6          1.1624    3.2191    0.0101 H         1 <0>         0.1862
     33 H7          3.8806    3.0957   -0.0256 H         1 <0>         0.1676
     34 H8          5.6594    1.0920   -0.0440 H         1 <0>         0.1604
     35 H9          4.7299   -1.5232   -2.1222 H         1 <0>         0.0629
     36 H10         6.0895   -0.8798   -1.1689 H         1 <0>         0.1033
     37 H11         6.5342   -3.1175   -0.2446 H         1 <0>         0.0672
     38 H12         6.5405   -3.1890   -2.0235 H         1 <0>         0.1107
     39 H13         4.5460   -3.9732    0.9347 H         1 <0>         0.0661
     40 H14         3.2108   -4.6216   -0.0490 H         1 <0>         0.1095
     41 H15         2.7134   -2.3330    0.8338 H         1 <0>         0.0997
     42 H16         2.7468   -2.3761   -0.9456 H         1 <0>         0.0656
@<TRIPOS>BOND
     1    1    6 ar
     2    1    2 ar
     3    1   28 1
     4    2    3 ar
     5    2   29 1
     6    3    4 ar
     7    3   30 1
     8    4    5 ar
     9    4   12 ar
    10    5    6 ar
    11    5    7 ar
    12    6   31 1
    13    7    9 ar
    14    7    8 1
    15    8   10 1
    16    9   11 ar
    17   11   13 1
    18   11   12 ar
    19   13   14 2
    20   13   26 1
    21   14   15 1
    22   14   32 1
    23   15   19 1
    24   15   16 2
    25   16   17 1
    26   16   33 1
    27   17   18 2
    28   17   34 1
    29   18   19 1
    30   18   20 1
    31   20   25 1
    32   20   21 1
    33   21   22 1
    34   21   35 1
    35   21   36 1
    36   22   23 1
    37   22   37 1
    38   22   38 1
    39   23   24 1
    40   24   25 1
    41   24   39 1
    42   24   40 1
    43   25   41 1
    44   25   42 1
    45   26   27 3
@<TRIPOS>MOLECULE
ZINC02323989
   47    48     0     0     0
SMALL
USER_CHARGES
N-[(2-hydroxy-7-methyl-3-quinolyl)methyl]-N-isobutyl-2-methoxy-acetamide
@<TRIPOS>ATOM
      1 C1         -4.5742    9.3835   12.2510 C.3       1 <0>        -0.1200
      2 C2         -3.9446    8.3168   11.3927 C.ar      1 <0>        -0.0495
      3 C3         -2.5580    8.1864   11.3683 C.ar      1 <0>        -0.1294
      4 C4         -1.9599    7.2293   10.6061 C.ar      1 <0>        -0.0731
      5 C5         -2.7492    6.3685    9.8274 C.ar      1 <0>        -0.1432
      6 C6         -2.1665    5.3683    9.0233 C.ar      1 <0>         0.0173
      7 C7         -2.9913    4.5660    8.2925 C.ar      1 <0>        -0.2392
      8 C8         -4.3783    4.7481    8.3564 C.ar      1 <0>         0.3715
      9 N1         -4.9165    5.6852    9.1065 N.ar      1 <0>        -0.5025
     10 C9         -4.1587    6.5031    9.8460 C.ar      1 <0>         0.1791
     11 C10        -4.7395    7.5009   10.6473 C.ar      1 <0>        -0.1128
     12 O1         -5.1858    3.9420    7.6241 O.3       1 <0>        -0.4539
     13 C11        -2.4116    3.4833    7.4192 C.3       1 <0>         0.1564
     14 N2         -2.4945    2.1972    8.1161 N.am      1 <0>        -0.6139
     15 C12        -3.6251    1.3000    7.8659 C.3       1 <0>         0.0993
     16 C13        -3.2345    0.2714    6.8027 C.3       1 <0>        -0.1186
     17 C14        -4.3635   -0.7485    6.6408 C.3       1 <0>        -0.1498
     18 C15        -2.9943    0.9823    5.4693 C.3       1 <0>        -0.1539
     19 C16        -1.5303    1.8396    8.9872 C.2       1 <0>         0.5210
     20 O2         -0.6426    2.6187    9.2627 O.2       1 <0>        -0.5058
     21 C17        -1.5553    0.4717    9.6192 C.3       1 <0>         0.0423
     22 O3         -0.4375    0.3326   10.4983 O.3       1 <0>        -0.3666
     23 C18        -0.3669   -0.9358   11.1525 C.3       1 <0>         0.0293
     24 H1         -4.7789    8.9785   13.2422 H         1 <0>         0.0763
     25 H2         -5.5069    9.7140   11.7940 H         1 <0>         0.0711
     26 H3         -3.8924   10.2294   12.3378 H         1 <0>         0.0713
     27 H4         -1.9495    8.8504   11.9645 H         1 <0>         0.1293
     28 H5         -0.8840    7.1350   10.5986 H         1 <0>         0.1324
     29 H6         -1.0947    5.2408    8.9870 H         1 <0>         0.1494
     30 H7         -5.8128    7.6189   10.6732 H         1 <0>         0.1364
     31 H8         -4.6286    3.2877    7.1128 H         1 <0>         0.3960
     32 H9         -2.9742    3.4283    6.4872 H         1 <0>         0.0924
     33 H10        -1.3685    3.7119    7.2012 H         1 <0>         0.1064
     34 H11        -3.8916    0.7850    8.7890 H         1 <0>         0.0870
     35 H12        -4.4783    1.8800    7.5141 H         1 <0>         0.0839
     36 H13        -2.3231   -0.2412    7.1105 H         1 <0>         0.0775
     37 H14        -5.2748   -0.2360    6.3330 H         1 <0>         0.0609
     38 H15        -4.0851   -1.4813    5.8833 H         1 <0>         0.0630
     39 H16        -4.5345   -1.2550    7.5907 H         1 <0>         0.0583
     40 H17        -2.1211    1.6290    5.5546 H         1 <0>         0.0583
     41 H18        -2.8229    0.2414    4.6883 H         1 <0>         0.0627
     42 H19        -3.8677    1.5828    5.2152 H         1 <0>         0.0568
     43 H20        -2.4794    0.3493   10.1841 H         1 <0>         0.0795
     44 H21        -1.5020   -0.2892    8.8405 H         1 <0>         0.0835
     45 H22        -0.2889   -1.7260   10.4057 H         1 <0>         0.0452
     46 H23         0.5085   -0.9618   11.8015 H         1 <0>         0.0938
     47 H24        -1.2662   -1.0875   11.7494 H         1 <0>         0.0448
@<TRIPOS>BOND
     1    1    2 1
     2    1   24 1
     3    1   25 1
     4    1   26 1
     5    2   11 ar
     6    2    3 ar
     7    3    4 ar
     8    3   27 1
     9    4    5 ar
    10    4   28 1
    11    5    6 ar
    12    5   10 ar
    13    6   29 1
    14    6    7 ar
    15    7   13 1
    16    7    8 ar
    17    8    9 ar
    18    8   12 1
    19    9   10 ar
    20   10   11 ar
    21   11   30 1
    22   12   31 1
    23   13   14 1
    24   13   32 1
    25   13   33 1
    26   14   15 1
    27   14   19 am
    28   15   16 1
    29   15   34 1
    30   15   35 1
    31   16   17 1
    32   16   18 1
    33   16   36 1
    34   17   37 1
    35   17   38 1
    36   17   39 1
    37   18   40 1
    38   18   41 1
    39   18   42 1
    40   19   20 2
    41   19   21 1
    42   21   22 1
    43   21   43 1
    44   21   44 1
    45   22   23 1
    46   23   45 1
    47   23   46 1
    48   23   47 1
@<TRIPOS>MOLECULE
ZINC05343498
   39    41     0     0     0
SMALL
USER_CHARGES
5-(2-hydroxy-3,4-dimethyl-phenyl)-N-(3-pyridyl)-2H-pyrazole-3-carboxamide
@<TRIPOS>ATOM
      1 C1          9.1389    2.3138    0.5553 C.3       1 <0>        -0.1226
      2 C2          7.6356    2.3690    0.4642 C.ar      1 <0>        -0.0638
      3 C3          6.8969    1.2025    0.5542 C.ar      1 <0>        -0.1143
      4 C4          5.5195    1.2445    0.4767 C.ar      1 <0>        -0.0802
      5 C5          4.8704    2.4634    0.2966 C.ar      1 <0>        -0.0511
      6 C6          5.6192    3.6400    0.2060 C.ar      1 <0>         0.1065
      7 C7          7.0011    3.5843    0.2908 C.ar      1 <0>        -0.0998
      8 C8          7.8129    4.8504    0.1942 C.3       1 <0>        -0.1187
      9 O1          4.9942    4.8341    0.0350 O.3       1 <0>        -0.4982
     10 C9          3.3899    2.5134    0.2074 C.2       1 <0>         0.0514
     11 C10         2.5147    1.4146    0.2878 C.2       1 <0>        -0.1506
     12 C11         1.2470    1.9474    0.1495 C.2       1 <0>        -0.0249
     13 N1          1.4083    3.2960   -0.0020 N.2       1 <0>        -0.2799
     14 H1          3.0229    4.5200   -0.0517 H         1 <0>         0.4565
     15 N2          2.6570    3.5935    0.0364 N.pl3     1 <0>        -0.3170
     16 C12        -0.0255    1.2084    0.1627 C.2       1 <0>         0.6112
     17 O2         -0.0254   -0.0003    0.2995 O.2       1 <0>        -0.5099
     18 N3         -1.1906    1.8701    0.0179 N.am      1 <0>        -0.6571
     19 C13        -2.3905    1.1590   -0.0859 C.ar      1 <0>         0.0973
     20 C14        -2.4213   -0.0891   -0.7038 C.ar      1 <0>        -0.0797
     21 C15        -3.6323   -0.7571   -0.7772 C.ar      1 <0>        -0.1496
     22 C16        -4.7641   -0.1637   -0.2490 C.ar      1 <0>         0.0809
     23 N4         -4.7025    1.0218    0.3250 N.ar      1 <0>        -0.4649
     24 C17        -3.5699    1.6893    0.4205 C.ar      1 <0>         0.0787
     25 H2          9.4438    2.4160    1.5967 H         1 <0>         0.0765
     26 H3          9.4917    1.3590    0.1653 H         1 <0>         0.0717
     27 H4          9.5684    3.1266   -0.0305 H         1 <0>         0.0742
     28 H5          7.3996    0.2563    0.6900 H         1 <0>         0.1344
     29 H6          4.9457    0.3325    0.5517 H         1 <0>         0.1371
     30 H7          7.9507    5.2705    1.1905 H         1 <0>         0.0725
     31 H8          8.7857    4.6258   -0.2432 H         1 <0>         0.0755
     32 H9          7.2894    5.5705   -0.4346 H         1 <0>         0.0742
     33 H10         4.7633    5.2792    0.8619 H         1 <0>         0.3913
     34 H11         2.7774    0.3765    0.4278 H         1 <0>         0.1674
     35 H12        -1.1970    2.8396   -0.0145 H         1 <0>         0.4207
     36 H13        -1.5223   -0.5267   -1.1120 H         1 <0>         0.1462
     37 H14        -3.6928   -1.7283   -1.2457 H         1 <0>         0.1405
     38 H15        -5.7117   -0.6783   -0.3076 H         1 <0>         0.1593
     39 H16        -3.5589    2.6581    0.8977 H         1 <0>         0.1582
@<TRIPOS>BOND
     1    1    2 1
     2    1   25 1
     3    1   26 1
     4    1   27 1
     5    2    7 ar
     6    2    3 ar
     7    3    4 ar
     8    3   28 1
     9    4    5 ar
    10    4   29 1
    11    5    6 ar
    12    5   10 1
    13    6    7 ar
    14    6    9 1
    15    7    8 1
    16    8   30 1
    17    8   31 1
    18    8   32 1
    19    9   33 1
    20   10   11 2
    21   10   15 1
    22   11   34 1
    23   11   12 1
    24   12   16 1
    25   12   13 2
    26   13   15 1
    27   14   15 1
    28   16   17 2
    29   16   18 am
    30   18   19 1
    31   18   35 1
    32   19   24 ar
    33   19   20 ar
    34   20   21 ar
    35   20   36 1
    36   21   22 ar
    37   21   37 1
    38   22   23 ar
    39   22   38 1
    40   23   24 ar
    41   24   39 1
@<TRIPOS>MOLECULE
ZINC02324364
   55    58     0     0     0
SMALL
USER_CHARGES
2-diethylamino-1-[2-(2-naphthyl)-4-quinolyl]-ethanol
@<TRIPOS>ATOM
      1 C1          7.0053   11.3096   -1.5429 C.3       1 <0>        -0.1912
      2 C2          5.8645   11.9318   -0.7352 C.3       1 <0>        -0.0175
      3 C3          4.5056   12.0745   -2.7341 C.3       1 <0>        -0.0127
      4 C4          4.3757   13.5990   -2.7241 C.3       1 <0>        -0.1881
      5 C5          4.3482   10.1304   -1.2995 C.3       1 <0>        -0.0450
      6 C6          4.1837    9.6933    0.1575 C.3       1 <0>         0.1329
      7 H1          5.0504   10.0170    0.7339 H         1 <0>         0.1364
      8 C7          4.0699    8.1920    0.2218 C.ar      1 <0>        -0.0806
      9 C8          2.8501    7.5838    0.2474 C.ar      1 <0>        -0.1376
     10 C9          2.7687    6.1837    0.3069 C.ar      1 <0>         0.2138
     11 N1          3.8520    5.4313    0.3445 N.ar      1 <0>        -0.4543
     12 C10         5.0726    5.9723    0.3163 C.ar      1 <0>         0.1409
     13 C11         5.2214    7.3809    0.2565 C.ar      1 <0>        -0.0925
     14 C12         6.5081    7.9414    0.2334 C.ar      1 <0>        -0.1253
     15 C13         7.5987    7.1266    0.2678 C.ar      1 <0>        -0.0928
     16 C14         7.4552    5.7418    0.3266 C.ar      1 <0>        -0.0978
     17 C15         6.2234    5.1641    0.3509 C.ar      1 <0>        -0.0796
     18 C16         1.4356    5.5361    0.3342 C.ar      1 <0>        -0.0747
     19 C17         0.2757    6.3279    0.3008 C.ar      1 <0>        -0.1027
     20 C18        -0.9570    5.7591    0.3247 C.ar      1 <0>        -0.1019
     21 C19        -1.0844    4.3594    0.3836 C.ar      1 <0>        -0.0384
     22 C20        -2.3486    3.7469    0.4088 C.ar      1 <0>        -0.1129
     23 C21        -2.4399    2.3897    0.4607 C.ar      1 <0>        -0.1015
     24 C22        -1.2962    1.5943    0.5002 C.ar      1 <0>        -0.1131
     25 C23        -0.0548    2.1515    0.4773 C.ar      1 <0>        -0.0993
     26 C24         0.0793    3.5502    0.4183 C.ar      1 <0>        -0.0612
     27 C25         1.3442    4.1576    0.3927 C.ar      1 <0>        -0.0415
     28 O1          3.0020   10.2844    0.7017 O.3       1 <0>        -0.5417
     29 H2          7.9498   11.4753   -1.0248 H         1 <0>         0.1092
     30 H3          6.8327   10.2387   -1.6501 H         1 <0>         0.0790
     31 H4          7.0461   11.7715   -2.5294 H         1 <0>         0.0845
     32 H5          5.9773   13.0159   -0.7228 H         1 <0>         0.1348
     33 H6          5.8930   11.5518    0.2860 H         1 <0>         0.1276
     34 H7          5.4113   11.7906   -3.2701 H         1 <0>         0.1337
     35 H8          3.6382   11.6392   -3.2303 H         1 <0>         0.1284
     36 H9          3.4843   13.8840   -2.1653 H         1 <0>         0.0811
     37 H10         5.2557   14.0355   -2.2517 H         1 <0>         0.0804
     38 H11         4.2946   13.9635   -3.7481 H         1 <0>         0.1071
     39 H12         5.1985    9.6108   -1.7409 H         1 <0>         0.1463
     40 H13         3.4437    9.8857   -1.8565 H         1 <0>         0.1380
     41 H14         1.9484    8.1778    0.2217 H         1 <0>         0.1422
     42 H15         6.6326    9.0133    0.1875 H         1 <0>         0.1210
     43 H16         8.5880    7.5594    0.2493 H         1 <0>         0.1340
     44 H17         8.3358    5.1169    0.3530 H         1 <0>         0.1391
     45 H18         6.1296    4.0892    0.3969 H         1 <0>         0.1438
     46 H19         0.3656    7.4033    0.2559 H         1 <0>         0.1228
     47 H20        -1.8395    6.3811    0.2981 H         1 <0>         0.1335
     48 H21        -3.2441    4.3501    0.3825 H         1 <0>         0.1311
     49 H22        -3.4134    1.9224    0.4759 H         1 <0>         0.1286
     50 H23        -1.3965    0.5199    0.5452 H         1 <0>         0.1289
     51 H24         0.8229    1.5227    0.5047 H         1 <0>         0.1314
     52 H25         2.2389    3.5533    0.4189 H         1 <0>         0.1420
     53 H26         2.1900   10.0396    0.2370 H         1 <0>         0.3897
     54 N2          4.5580   11.5930   -1.3377 N.4       1 <0>        -0.3919
     55 H27         3.8135   12.0509   -0.7988 H         1 <0>         0.4336
@<TRIPOS>BOND
     1    1    2 1
     2    1   29 1
     3    1   30 1
     4    1   31 1
     5    2   32 1
     6    2   33 1
     7    2   54 1
     8    3    4 1
     9    3   34 1
    10    3   35 1
    11    3   54 1
    12    4   36 1
    13    4   37 1
    14    4   38 1
    15    5    6 1
    16    5   39 1
    17    5   40 1
    18    5   54 1
    19    6    7 1
    20    6    8 1
    21    6   28 1
    22    8   13 ar
    23    8    9 ar
    24    9   10 ar
    25    9   41 1
    26   10   11 ar
    27   10   18 1
    28   11   12 ar
    29   12   17 ar
    30   12   13 ar
    31   13   14 ar
    32   14   15 ar
    33   14   42 1
    34   15   16 ar
    35   15   43 1
    36   16   17 ar
    37   16   44 1
    38   17   45 1
    39   18   27 ar
    40   18   19 ar
    41   19   20 ar
    42   19   46 1
    43   20   21 ar
    44   20   47 1
    45   21   26 ar
    46   21   22 ar
    47   22   23 ar
    48   22   48 1
    49   23   24 ar
    50   23   49 1
    51   24   25 ar
    52   24   50 1
    53   25   26 ar
    54   25   51 1
    55   26   27 ar
    56   27   52 1
    57   28   53 1
    58   54   55 1
@<TRIPOS>MOLECULE
ZINC02324448
   55    58     0     0     0
SMALL
USER_CHARGES
2-diethylamino-1-[2-(2-naphthyl)-4-quinolyl]-ethanol
@<TRIPOS>ATOM
      1 C1          7.0053   11.3096   -1.5429 C.3       1 <0>        -0.1912
      2 C2          5.8645   11.9318   -0.7352 C.3       1 <0>        -0.0175
      3 C3          4.5056   12.0745   -2.7341 C.3       1 <0>        -0.0127
      4 C4          4.3757   13.5990   -2.7241 C.3       1 <0>        -0.1881
      5 C5          4.3482   10.1304   -1.2995 C.3       1 <0>        -0.0450
      6 C6          4.1837    9.6933    0.1575 C.3       1 <0>         0.1329
      7 H1          5.0504   10.0170    0.7339 H         1 <0>         0.1364
      8 C7          4.0699    8.1920    0.2218 C.ar      1 <0>        -0.0806
      9 C8          2.8501    7.5838    0.2474 C.ar      1 <0>        -0.1376
     10 C9          2.7687    6.1837    0.3069 C.ar      1 <0>         0.2138
     11 N1          3.8520    5.4313    0.3445 N.ar      1 <0>        -0.4543
     12 C10         5.0726    5.9723    0.3163 C.ar      1 <0>         0.1409
     13 C11         5.2214    7.3809    0.2565 C.ar      1 <0>        -0.0925
     14 C12         6.5081    7.9414    0.2334 C.ar      1 <0>        -0.1253
     15 C13         7.5987    7.1266    0.2678 C.ar      1 <0>        -0.0928
     16 C14         7.4552    5.7418    0.3266 C.ar      1 <0>        -0.0978
     17 C15         6.2234    5.1641    0.3509 C.ar      1 <0>        -0.0796
     18 C16         1.4356    5.5361    0.3342 C.ar      1 <0>        -0.0747
     19 C17         0.2757    6.3279    0.3008 C.ar      1 <0>        -0.1027
     20 C18        -0.9570    5.7591    0.3247 C.ar      1 <0>        -0.1019
     21 C19        -1.0844    4.3594    0.3836 C.ar      1 <0>        -0.0384
     22 C20        -2.3486    3.7469    0.4088 C.ar      1 <0>        -0.1129
     23 C21        -2.4399    2.3897    0.4607 C.ar      1 <0>        -0.1015
     24 C22        -1.2962    1.5943    0.5002 C.ar      1 <0>        -0.1131
     25 C23        -0.0548    2.1515    0.4773 C.ar      1 <0>        -0.0993
     26 C24         0.0793    3.5502    0.4183 C.ar      1 <0>        -0.0612
     27 C25         1.3442    4.1576    0.3927 C.ar      1 <0>        -0.0415
     28 O1          3.0020   10.2844    0.7017 O.3       1 <0>        -0.5417
     29 H2          7.9498   11.4753   -1.0248 H         1 <0>         0.1092
     30 H3          6.8327   10.2387   -1.6501 H         1 <0>         0.0790
     31 H4          7.0461   11.7715   -2.5294 H         1 <0>         0.0845
     32 H5          5.9773   13.0159   -0.7228 H         1 <0>         0.1348
     33 H6          5.8930   11.5518    0.2860 H         1 <0>         0.1276
     34 H7          5.4113   11.7906   -3.2701 H         1 <0>         0.1337
     35 H8          3.6382   11.6392   -3.2303 H         1 <0>         0.1284
     36 H9          3.4843   13.8840   -2.1653 H         1 <0>         0.0811
     37 H10         5.2557   14.0355   -2.2517 H         1 <0>         0.0804
     38 H11         4.2946   13.9635   -3.7481 H         1 <0>         0.1071
     39 H12         5.1985    9.6108   -1.7409 H         1 <0>         0.1463
     40 H13         3.4437    9.8857   -1.8565 H         1 <0>         0.1380
     41 H14         1.9484    8.1778    0.2217 H         1 <0>         0.1422
     42 H15         6.6326    9.0133    0.1875 H         1 <0>         0.1210
     43 H16         8.5880    7.5594    0.2493 H         1 <0>         0.1340
     44 H17         8.3358    5.1169    0.3530 H         1 <0>         0.1391
     45 H18         6.1296    4.0892    0.3969 H         1 <0>         0.1438
     46 H19         0.3656    7.4033    0.2559 H         1 <0>         0.1228
     47 H20        -1.8395    6.3811    0.2981 H         1 <0>         0.1335
     48 H21        -3.2441    4.3501    0.3825 H         1 <0>         0.1311
     49 H22        -3.4134    1.9224    0.4759 H         1 <0>         0.1286
     50 H23        -1.3965    0.5199    0.5452 H         1 <0>         0.1289
     51 H24         0.8229    1.5227    0.5047 H         1 <0>         0.1314
     52 H25         2.2389    3.5533    0.4189 H         1 <0>         0.1420
     53 H26         2.1900   10.0396    0.2370 H         1 <0>         0.3897
     54 N2          4.5580   11.5930   -1.3377 N.4       1 <0>        -0.3919
     55 H27         3.8135   12.0509   -0.7988 H         1 <0>         0.4336
@<TRIPOS>BOND
     1    1    2 1
     2    1   29 1
     3    1   30 1
     4    1   31 1
     5    2   32 1
     6    2   33 1
     7    2   54 1
     8    3    4 1
     9    3   34 1
    10    3   35 1
    11    3   54 1
    12    4   36 1
    13    4   37 1
    14    4   38 1
    15    5    6 1
    16    5   39 1
    17    5   40 1
    18    5   54 1
    19    6    7 1
    20    6    8 1
    21    6   28 1
    22    8   13 ar
    23    8    9 ar
    24    9   10 ar
    25    9   41 1
    26   10   11 ar
    27   10   18 1
    28   11   12 ar
    29   12   17 ar
    30   12   13 ar
    31   13   14 ar
    32   14   15 ar
    33   14   42 1
    34   15   16 ar
    35   15   43 1
    36   16   17 ar
    37   16   44 1
    38   17   45 1
    39   18   27 ar
    40   18   19 ar
    41   19   20 ar
    42   19   46 1
    43   20   21 ar
    44   20   47 1
    45   21   26 ar
    46   21   22 ar
    47   22   23 ar
    48   22   48 1
    49   23   24 ar
    50   23   49 1
    51   24   25 ar
    52   24   50 1
    53   25   26 ar
    54   25   51 1
    55   26   27 ar
    56   27   52 1
    57   28   53 1
    58   54   55 1
@<TRIPOS>MOLECULE
ZINC05343511
   40    42     0     0     0
SMALL
USER_CHARGES
5-(2-hydroxy-5-methyl-phenyl)-N-(m-tolyl)-2H-pyrazole-3-carboxamide
@<TRIPOS>ATOM
      1 C1          1.9524    1.0348    1.5751 C.3       1 <0>        -0.1166
      2 C2          0.9184    1.7777    0.7689 C.ar      1 <0>        -0.0648
      3 C3         -0.0148    1.0757    0.0278 C.ar      1 <0>        -0.1322
      4 C4         -0.9690    1.7534   -0.7084 C.ar      1 <0>        -0.0954
      5 C5         -0.9897    3.1346   -0.7100 C.ar      1 <0>        -0.1497
      6 C6         -0.0506    3.8424    0.0285 C.ar      1 <0>         0.1456
      7 C7          0.9070    3.1585    0.7667 C.ar      1 <0>        -0.1200
      8 N1         -0.0691    5.2407    0.0295 N.am      1 <0>        -0.6719
      9 C8          1.0854    5.9298    0.1230 C.2       1 <0>         0.5942
     10 O1          2.1488    5.3395    0.1098 O.2       1 <0>        -0.4936
     11 C9          1.0593    7.3964    0.2410 C.2       1 <0>        -0.0496
     12 C10         2.1507    8.2372    0.3504 C.2       1 <0>        -0.1205
     13 C11         1.6129    9.5347    0.4329 C.2       1 <0>         0.0670
     14 N2          0.3020    9.4255    0.3816 N.2       1 <0>        -0.2489
     15 N3         -0.0492    8.1953    0.2701 N.pl3     1 <0>        -0.3763
     16 H1         -0.9932    7.8703    0.2131 H         1 <0>         0.4520
     17 C12         2.3833   10.7967    0.5610 C.ar      1 <0>        -0.0325
     18 C13         1.7180   12.0180    0.6329 C.ar      1 <0>        -0.0807
     19 C14         2.4387   13.1886    0.7568 C.ar      1 <0>        -0.0940
     20 C15         3.8214   13.1544    0.7988 C.ar      1 <0>        -0.0977
     21 C16         4.4915   11.9482    0.7234 C.ar      1 <0>        -0.1381
     22 C17         3.7799   10.7651    0.6042 C.ar      1 <0>         0.1202
     23 O2          4.4375    9.5786    0.5299 O.3       1 <0>        -0.4914
     24 C18         1.7174   14.5092    0.8403 C.3       1 <0>        -0.1153
     25 H2          2.8371    0.8636    0.9619 H         1 <0>         0.0743
     26 H3          2.2251    1.6260    2.4493 H         1 <0>         0.0677
     27 H4          1.5429    0.0774    1.8973 H         1 <0>         0.0689
     28 H5         -0.0009   -0.0042    0.0276 H         1 <0>         0.1253
     29 H6         -1.6991    1.2023   -1.2826 H         1 <0>         0.1285
     30 H7         -1.7353    3.6633   -1.2852 H         1 <0>         0.1252
     31 H8          1.6386    3.7060    1.3424 H         1 <0>         0.1354
     32 H9         -0.9128    5.7146   -0.0372 H         1 <0>         0.4056
     33 H10         3.1939    7.9580    0.3667 H         1 <0>         0.1814
     34 H11         0.6391   12.0487    0.5959 H         1 <0>         0.1333
     35 H12         4.3793   14.0745    0.8914 H         1 <0>         0.1294
     36 H13         5.5707   11.9276    0.7571 H         1 <0>         0.1344
     37 H14         4.6567    9.3061   -0.3716 H         1 <0>         0.3917
     38 H15         1.5767   14.9104   -0.1634 H         1 <0>         0.0723
     39 H16         0.7460   14.3633    1.3128 H         1 <0>         0.0680
     40 H17         2.3078   15.2089    1.4318 H         1 <0>         0.0687
@<TRIPOS>BOND
     1    1    2 1
     2    1   25 1
     3    1   26 1
     4    1   27 1
     5    2    7 ar
     6    2    3 ar
     7    3    4 ar
     8    3   28 1
     9    4    5 ar
    10    4   29 1
    11    5    6 ar
    12    5   30 1
    13    6    7 ar
    14    6    8 1
    15    7   31 1
    16    8    9 am
    17    8   32 1
    18    9   10 2
    19    9   11 1
    20   11   15 1
    21   11   12 2
    22   12   13 1
    23   12   33 1
    24   13   14 2
    25   13   17 1
    26   14   15 1
    27   15   16 1
    28   17   22 ar
    29   17   18 ar
    30   18   19 ar
    31   18   34 1
    32   19   20 ar
    33   19   24 1
    34   20   21 ar
    35   20   35 1
    36   21   22 ar
    37   21   36 1
    38   22   23 1
    39   23   37 1
    40   24   38 1
    41   24   39 1
    42   24   40 1
@<TRIPOS>MOLECULE
ZINC02325547
   55    58     0     0     0
SMALL
USER_CHARGES
2-diethylamino-1-[2-(2-naphthyl)-4-quinolyl]-ethanol
@<TRIPOS>ATOM
      1 C1          7.0053   11.3096   -1.5429 C.3       1 <0>        -0.1912
      2 C2          5.8645   11.9318   -0.7352 C.3       1 <0>        -0.0175
      3 C3          4.5056   12.0745   -2.7341 C.3       1 <0>        -0.0127
      4 C4          4.3757   13.5990   -2.7241 C.3       1 <0>        -0.1881
      5 C5          4.3482   10.1304   -1.2995 C.3       1 <0>        -0.0450
      6 C6          4.1837    9.6933    0.1575 C.3       1 <0>         0.1329
      7 H1          5.0504   10.0170    0.7339 H         1 <0>         0.1364
      8 C7          4.0699    8.1920    0.2218 C.ar      1 <0>        -0.0806
      9 C8          2.8501    7.5838    0.2474 C.ar      1 <0>        -0.1376
     10 C9          2.7687    6.1837    0.3069 C.ar      1 <0>         0.2138
     11 N1          3.8520    5.4313    0.3445 N.ar      1 <0>        -0.4543
     12 C10         5.0726    5.9723    0.3163 C.ar      1 <0>         0.1409
     13 C11         5.2214    7.3809    0.2565 C.ar      1 <0>        -0.0925
     14 C12         6.5081    7.9414    0.2334 C.ar      1 <0>        -0.1253
     15 C13         7.5987    7.1266    0.2678 C.ar      1 <0>        -0.0928
     16 C14         7.4552    5.7418    0.3266 C.ar      1 <0>        -0.0978
     17 C15         6.2234    5.1641    0.3509 C.ar      1 <0>        -0.0796
     18 C16         1.4356    5.5361    0.3342 C.ar      1 <0>        -0.0747
     19 C17         0.2757    6.3279    0.3008 C.ar      1 <0>        -0.1027
     20 C18        -0.9570    5.7591    0.3247 C.ar      1 <0>        -0.1019
     21 C19        -1.0844    4.3594    0.3836 C.ar      1 <0>        -0.0384
     22 C20        -2.3486    3.7469    0.4088 C.ar      1 <0>        -0.1129
     23 C21        -2.4399    2.3897    0.4607 C.ar      1 <0>        -0.1015
     24 C22        -1.2962    1.5943    0.5002 C.ar      1 <0>        -0.1131
     25 C23        -0.0548    2.1515    0.4773 C.ar      1 <0>        -0.0993
     26 C24         0.0793    3.5502    0.4183 C.ar      1 <0>        -0.0612
     27 C25         1.3442    4.1576    0.3927 C.ar      1 <0>        -0.0415
     28 O1          3.0020   10.2844    0.7017 O.3       1 <0>        -0.5417
     29 H2          7.9498   11.4753   -1.0248 H         1 <0>         0.1092
     30 H3          6.8327   10.2387   -1.6501 H         1 <0>         0.0790
     31 H4          7.0461   11.7715   -2.5294 H         1 <0>         0.0845
     32 H5          5.9773   13.0159   -0.7228 H         1 <0>         0.1348
     33 H6          5.8930   11.5518    0.2860 H         1 <0>         0.1276
     34 H7          5.4113   11.7906   -3.2701 H         1 <0>         0.1337
     35 H8          3.6382   11.6392   -3.2303 H         1 <0>         0.1284
     36 H9          3.4843   13.8840   -2.1653 H         1 <0>         0.0811
     37 H10         5.2557   14.0355   -2.2517 H         1 <0>         0.0804
     38 H11         4.2946   13.9635   -3.7481 H         1 <0>         0.1071
     39 H12         5.1985    9.6108   -1.7409 H         1 <0>         0.1463
     40 H13         3.4437    9.8857   -1.8565 H         1 <0>         0.1380
     41 H14         1.9484    8.1778    0.2217 H         1 <0>         0.1422
     42 H15         6.6326    9.0133    0.1875 H         1 <0>         0.1210
     43 H16         8.5880    7.5594    0.2493 H         1 <0>         0.1340
     44 H17         8.3358    5.1169    0.3530 H         1 <0>         0.1391
     45 H18         6.1296    4.0892    0.3969 H         1 <0>         0.1438
     46 H19         0.3656    7.4033    0.2559 H         1 <0>         0.1228
     47 H20        -1.8395    6.3811    0.2981 H         1 <0>         0.1335
     48 H21        -3.2441    4.3501    0.3825 H         1 <0>         0.1311
     49 H22        -3.4134    1.9224    0.4759 H         1 <0>         0.1286
     50 H23        -1.3965    0.5199    0.5452 H         1 <0>         0.1289
     51 H24         0.8229    1.5227    0.5047 H         1 <0>         0.1314
     52 H25         2.2389    3.5533    0.4189 H         1 <0>         0.1420
     53 H26         2.1900   10.0396    0.2370 H         1 <0>         0.3897
     54 N2          4.5580   11.5930   -1.3377 N.4       1 <0>        -0.3919
     55 H27         3.8135   12.0509   -0.7988 H         1 <0>         0.4336
@<TRIPOS>BOND
     1    1    2 1
     2    1   29 1
     3    1   30 1
     4    1   31 1
     5    2   32 1
     6    2   33 1
     7    2   54 1
     8    3    4 1
     9    3   34 1
    10    3   35 1
    11    3   54 1
    12    4   36 1
    13    4   37 1
    14    4   38 1
    15    5    6 1
    16    5   39 1
    17    5   40 1
    18    5   54 1
    19    6    7 1
    20    6    8 1
    21    6   28 1
    22    8   13 ar
    23    8    9 ar
    24    9   10 ar
    25    9   41 1
    26   10   11 ar
    27   10   18 1
    28   11   12 ar
    29   12   17 ar
    30   12   13 ar
    31   13   14 ar
    32   14   15 ar
    33   14   42 1
    34   15   16 ar
    35   15   43 1
    36   16   17 ar
    37   16   44 1
    38   17   45 1
    39   18   27 ar
    40   18   19 ar
    41   19   20 ar
    42   19   46 1
    43   20   21 ar
    44   20   47 1
    45   21   26 ar
    46   21   22 ar
    47   22   23 ar
    48   22   48 1
    49   23   24 ar
    50   23   49 1
    51   24   25 ar
    52   24   50 1
    53   25   26 ar
    54   25   51 1
    55   26   27 ar
    56   27   52 1
    57   28   53 1
    58   54   55 1
@<TRIPOS>MOLECULE
ZINC02325660
   55    58     0     0     0
SMALL
USER_CHARGES
2-diethylamino-1-[2-(2-naphthyl)-4-quinolyl]-ethanol
@<TRIPOS>ATOM
      1 C1          7.0053   11.3096   -1.5429 C.3       1 <0>        -0.1912
      2 C2          5.8645   11.9318   -0.7352 C.3       1 <0>        -0.0175
      3 C3          4.5056   12.0745   -2.7341 C.3       1 <0>        -0.0127
      4 C4          4.3757   13.5990   -2.7241 C.3       1 <0>        -0.1881
      5 C5          4.3482   10.1304   -1.2995 C.3       1 <0>        -0.0450
      6 C6          4.1837    9.6933    0.1575 C.3       1 <0>         0.1329
      7 H1          5.0504   10.0170    0.7339 H         1 <0>         0.1364
      8 C7          4.0699    8.1920    0.2218 C.ar      1 <0>        -0.0806
      9 C8          2.8501    7.5838    0.2474 C.ar      1 <0>        -0.1376
     10 C9          2.7687    6.1837    0.3069 C.ar      1 <0>         0.2138
     11 N1          3.8520    5.4313    0.3445 N.ar      1 <0>        -0.4543
     12 C10         5.0726    5.9723    0.3163 C.ar      1 <0>         0.1409
     13 C11         5.2214    7.3809    0.2565 C.ar      1 <0>        -0.0925
     14 C12         6.5081    7.9414    0.2334 C.ar      1 <0>        -0.1253
     15 C13         7.5987    7.1266    0.2678 C.ar      1 <0>        -0.0928
     16 C14         7.4552    5.7418    0.3266 C.ar      1 <0>        -0.0978
     17 C15         6.2234    5.1641    0.3509 C.ar      1 <0>        -0.0796
     18 C16         1.4356    5.5361    0.3342 C.ar      1 <0>        -0.0747
     19 C17         0.2757    6.3279    0.3008 C.ar      1 <0>        -0.1027
     20 C18        -0.9570    5.7591    0.3247 C.ar      1 <0>        -0.1019
     21 C19        -1.0844    4.3594    0.3836 C.ar      1 <0>        -0.0384
     22 C20        -2.3486    3.7469    0.4088 C.ar      1 <0>        -0.1129
     23 C21        -2.4399    2.3897    0.4607 C.ar      1 <0>        -0.1015
     24 C22        -1.2962    1.5943    0.5002 C.ar      1 <0>        -0.1131
     25 C23        -0.0548    2.1515    0.4773 C.ar      1 <0>        -0.0993
     26 C24         0.0793    3.5502    0.4183 C.ar      1 <0>        -0.0612
     27 C25         1.3442    4.1576    0.3927 C.ar      1 <0>        -0.0415
     28 O1          3.0020   10.2844    0.7017 O.3       1 <0>        -0.5417
     29 H2          7.9498   11.4753   -1.0248 H         1 <0>         0.1092
     30 H3          6.8327   10.2387   -1.6501 H         1 <0>         0.0790
     31 H4          7.0461   11.7715   -2.5294 H         1 <0>         0.0845
     32 H5          5.9773   13.0159   -0.7228 H         1 <0>         0.1348
     33 H6          5.8930   11.5518    0.2860 H         1 <0>         0.1276
     34 H7          5.4113   11.7906   -3.2701 H         1 <0>         0.1337
     35 H8          3.6382   11.6392   -3.2303 H         1 <0>         0.1284
     36 H9          3.4843   13.8840   -2.1653 H         1 <0>         0.0811
     37 H10         5.2557   14.0355   -2.2517 H         1 <0>         0.0804
     38 H11         4.2946   13.9635   -3.7481 H         1 <0>         0.1071
     39 H12         5.1985    9.6108   -1.7409 H         1 <0>         0.1463
     40 H13         3.4437    9.8857   -1.8565 H         1 <0>         0.1380
     41 H14         1.9484    8.1778    0.2217 H         1 <0>         0.1422
     42 H15         6.6326    9.0133    0.1875 H         1 <0>         0.1210
     43 H16         8.5880    7.5594    0.2493 H         1 <0>         0.1340
     44 H17         8.3358    5.1169    0.3530 H         1 <0>         0.1391
     45 H18         6.1296    4.0892    0.3969 H         1 <0>         0.1438
     46 H19         0.3656    7.4033    0.2559 H         1 <0>         0.1228
     47 H20        -1.8395    6.3811    0.2981 H         1 <0>         0.1335
     48 H21        -3.2441    4.3501    0.3825 H         1 <0>         0.1311
     49 H22        -3.4134    1.9224    0.4759 H         1 <0>         0.1286
     50 H23        -1.3965    0.5199    0.5452 H         1 <0>         0.1289
     51 H24         0.8229    1.5227    0.5047 H         1 <0>         0.1314
     52 H25         2.2389    3.5533    0.4189 H         1 <0>         0.1420
     53 H26         2.1900   10.0396    0.2370 H         1 <0>         0.3897
     54 N2          4.5580   11.5930   -1.3377 N.4       1 <0>        -0.3919
     55 H27         3.8135   12.0509   -0.7988 H         1 <0>         0.4336
@<TRIPOS>BOND
     1    1    2 1
     2    1   29 1
     3    1   30 1
     4    1   31 1
     5    2   32 1
     6    2   33 1
     7    2   54 1
     8    3    4 1
     9    3   34 1
    10    3   35 1
    11    3   54 1
    12    4   36 1
    13    4   37 1
    14    4   38 1
    15    5    6 1
    16    5   39 1
    17    5   40 1
    18    5   54 1
    19    6    7 1
    20    6    8 1
    21    6   28 1
    22    8   13 ar
    23    8    9 ar
    24    9   10 ar
    25    9   41 1
    26   10   11 ar
    27   10   18 1
    28   11   12 ar
    29   12   17 ar
    30   12   13 ar
    31   13   14 ar
    32   14   15 ar
    33   14   42 1
    34   15   16 ar
    35   15   43 1
    36   16   17 ar
    37   16   44 1
    38   17   45 1
    39   18   27 ar
    40   18   19 ar
    41   19   20 ar
    42   19   46 1
    43   20   21 ar
    44   20   47 1
    45   21   26 ar
    46   21   22 ar
    47   22   23 ar
    48   22   48 1
    49   23   24 ar
    50   23   49 1
    51   24   25 ar
    52   24   50 1
    53   25   26 ar
    54   25   51 1
    55   26   27 ar
    56   27   52 1
    57   28   53 1
    58   54   55 1
@<TRIPOS>MOLECULE
ZINC02326340
   37    39     0     0     0
SMALL
USER_CHARGES
methyl 2-(8-methyl-5-oxo-9-phenyl-2,6,7-triazabicyclo[4.3.0]nona-3,7,9-trien-3-yl)acetate
@<TRIPOS>ATOM
      1 C1          3.5452   -3.4659   -0.0492 C.3       1 <0>        -0.0786
      2 C2          2.7972   -2.1577   -0.0355 C.2       1 <0>         0.1391
      3 C3          3.3812   -0.8779   -0.0345 C.2       1 <0>        -0.2154
      4 C4          2.3492    0.0451   -0.0201 C.2       1 <0>         0.3258
      5 N1          2.3333    1.4232   -0.0134 N.pl3     1 <0>        -0.5946
      6 H1          3.1941    1.9321   -0.0201 H         1 <0>         0.4395
      7 C5          1.1473    2.0939    0.0023 C.2       1 <0>         0.2252
      8 C6         -0.0170    1.4052    0.0098 C.2       1 <0>        -0.2827
      9 C7          0.0021   -0.0041    0.0020 C.2       1 <0>         0.5692
     10 O1         -1.0436   -0.6291    0.0082 O.2       1 <0>        -0.4841
     11 N2          1.1806   -0.6584   -0.0127 N.am      1 <0>        -0.3576
     12 N3          1.4973   -2.0220   -0.0226 N.2       1 <0>        -0.2607
     13 C8          1.1327    3.6008    0.0110 C.3       1 <0>        -0.0837
     14 C9          1.2655    4.0963    1.4280 C.2       1 <0>         0.4610
     15 O2          1.3620    3.3068    2.3376 O.2       1 <0>        -0.4905
     16 O3          1.2764    5.4147    1.6798 O.3       1 <0>        -0.3529
     17 C10         1.4073    5.8197    3.0680 C.3       1 <0>         0.0353
     18 C11         4.8325   -0.5738   -0.0461 C.ar      1 <0>        -0.0071
     19 C12         5.4041    0.0681   -1.1436 C.ar      1 <0>        -0.1141
     20 C13         6.7545    0.3524   -1.1470 C.ar      1 <0>        -0.1167
     21 C14         7.5425   -0.0073   -0.0684 C.ar      1 <0>        -0.1179
     22 C15         6.9816   -0.6489    1.0213 C.ar      1 <0>        -0.1155
     23 C16         5.6315   -0.9340    1.0379 C.ar      1 <0>        -0.1017
     24 H2          2.8333   -4.2914   -0.0471 H         1 <0>         0.0819
     25 H3          4.1635   -3.5216   -0.9451 H         1 <0>         0.0875
     26 H4          4.1795   -3.5310    0.8348 H         1 <0>         0.0868
     27 H5         -0.9588    1.9339    0.0171 H         1 <0>         0.1791
     28 H6          1.9652    3.9756   -0.5844 H         1 <0>         0.1353
     29 H7          0.1937    3.9575   -0.4122 H         1 <0>         0.1514
     30 H8          1.4023    6.9079    3.1310 H         1 <0>         0.1078
     31 H9          0.5731    5.4186    3.6437 H         1 <0>         0.0676
     32 H10         2.3447    5.4367    3.4714 H         1 <0>         0.0663
     33 H11         4.7906    0.3458   -1.9879 H         1 <0>         0.1198
     34 H12         7.1977    0.8531   -1.9951 H         1 <0>         0.1240
     35 H13         8.5996    0.2138   -0.0770 H         1 <0>         0.1229
     36 H14         7.6017   -0.9274    1.8606 H         1 <0>         0.1248
     37 H15         5.1947   -1.4349    1.8892 H         1 <0>         0.1236
@<TRIPOS>BOND
     1    1    2 1
     2    1   24 1
     3    1   25 1
     4    1   26 1
     5    2   12 2
     6    2    3 1
     7    3    4 2
     8    3   18 1
     9    4   11 1
    10    4    5 1
    11    5    6 1
    12    5    7 1
    13    7    8 2
    14    7   13 1
    15    8    9 1
    16    8   27 1
    17    9   10 2
    18    9   11 am
    19   11   12 1
    20   13   14 1
    21   13   28 1
    22   13   29 1
    23   14   15 2
    24   14   16 1
    25   16   17 1
    26   17   30 1
    27   17   31 1
    28   17   32 1
    29   18   23 ar
    30   18   19 ar
    31   19   20 ar
    32   19   33 1
    33   20   21 ar
    34   20   34 1
    35   21   22 ar
    36   21   35 1
    37   22   23 ar
    38   22   36 1
    39   23   37 1
@<TRIPOS>MOLECULE
ZINC05343551
   43    45     0     0     0
SMALL
USER_CHARGES
N-benzyl-5-(2-hydroxy-3,4-dimethyl-phenyl)-2H-pyrazole-3-carboxamide
@<TRIPOS>ATOM
      1 C1         10.7156   -4.5982   -8.5197 C.3       1 <0>        -0.1221
      2 C2          9.6865   -4.0280   -7.5779 C.ar      1 <0>        -0.0653
      3 C3          9.8710   -4.1331   -6.2105 C.ar      1 <0>        -0.1143
      4 C4          8.9338   -3.6133   -5.3408 C.ar      1 <0>        -0.0809
      5 C5          7.7980   -2.9807   -5.8400 C.ar      1 <0>        -0.0485
      6 C6          7.6117   -2.8806   -7.2215 C.ar      1 <0>         0.1052
      7 C7          8.5630   -3.4021   -8.0836 C.ar      1 <0>        -0.1004
      8 C8          8.3692   -3.2923   -9.5741 C.3       1 <0>        -0.1136
      9 O1          6.5039   -2.2701   -7.7175 O.3       1 <0>        -0.4974
     10 C9          6.7870   -2.4205   -4.9091 C.2       1 <0>         0.0473
     11 C10         6.8451   -2.4490   -3.5036 C.2       1 <0>        -0.1541
     12 C11         5.6930   -1.8157   -3.0782 C.2       1 <0>        -0.0206
     13 N1          5.0147   -1.4473   -4.2059 N.2       1 <0>        -0.2826
     14 H1          5.3747   -1.6505   -6.1900 H         1 <0>         0.4548
     15 N2          5.6711   -1.8101   -5.2484 N.pl3     1 <0>        -0.3204
     16 C12         5.2781   -1.5836   -1.6851 C.2       1 <0>         0.6066
     17 O2          5.9767   -1.9744   -0.7694 O.2       1 <0>        -0.5305
     18 N3          4.1241   -0.9381   -1.4243 N.am      1 <0>        -0.7141
     19 C13         3.7112   -0.7071   -0.0378 C.3       1 <0>         0.1609
     20 C14         2.3960    0.0285   -0.0212 C.ar      1 <0>        -0.1112
     21 C15         1.2084   -0.6789   -0.0136 C.ar      1 <0>        -0.0995
     22 C16         0.0021   -0.0041    0.0020 C.ar      1 <0>        -0.1217
     23 C17        -0.0167    1.3781    0.0096 C.ar      1 <0>        -0.1110
     24 C18         1.1709    2.0855    0.0021 C.ar      1 <0>        -0.1219
     25 C19         2.3773    1.4107   -0.0141 C.ar      1 <0>        -0.0996
     26 H2         10.4644   -5.6339   -8.7484 H         1 <0>         0.0763
     27 H3         10.7277   -4.0154   -9.4407 H         1 <0>         0.0737
     28 H4         11.6989   -4.5577   -8.0511 H         1 <0>         0.0712
     29 H5         10.7514   -4.6239   -5.8225 H         1 <0>         0.1340
     30 H6          9.0812   -3.6968   -4.2742 H         1 <0>         0.1371
     31 H7          7.8228   -4.1638   -9.9347 H         1 <0>         0.0754
     32 H8          7.8031   -2.3889   -9.8012 H         1 <0>         0.0675
     33 H9          9.3415   -3.2447  -10.0644 H         1 <0>         0.0736
     34 H10         6.6102   -1.3200   -7.8627 H         1 <0>         0.3898
     35 H11         7.6240   -2.8749   -2.8884 H         1 <0>         0.1657
     36 H12         3.5669   -0.6264   -2.1546 H         1 <0>         0.4088
     37 H13         4.4677   -0.1105    0.4720 H         1 <0>         0.0798
     38 H14         3.5987   -1.6640    0.4720 H         1 <0>         0.0798
     39 H15         1.2231   -1.7588   -0.0196 H         1 <0>         0.1245
     40 H16        -0.9258   -0.5567    0.0079 H         1 <0>         0.1247
     41 H17        -0.9592    1.9054    0.0170 H         1 <0>         0.1237
     42 H18         1.1563    3.1654    0.0077 H         1 <0>         0.1246
     43 H19         3.3051    1.9634   -0.0204 H         1 <0>         0.1244
@<TRIPOS>BOND
     1    1    2 1
     2    1   26 1
     3    1   27 1
     4    1   28 1
     5    2    7 ar
     6    2    3 ar
     7    3    4 ar
     8    3   29 1
     9    4    5 ar
    10    4   30 1
    11    5    6 ar
    12    5   10 1
    13    6    7 ar
    14    6    9 1
    15    7    8 1
    16    8   31 1
    17    8   32 1
    18    8   33 1
    19    9   34 1
    20   10   11 2
    21   10   15 1
    22   11   35 1
    23   11   12 1
    24   12   16 1
    25   12   13 2
    26   13   15 1
    27   14   15 1
    28   16   17 2
    29   16   18 am
    30   18   19 1
    31   18   36 1
    32   19   20 1
    33   19   37 1
    34   19   38 1
    35   20   25 ar
    36   20   21 ar
    37   21   22 ar
    38   21   39 1
    39   22   23 ar
    40   22   40 1
    41   23   24 ar
    42   23   41 1
    43   24   25 ar
    44   24   42 1
    45   25   43 1
@<TRIPOS>MOLECULE
ZINC00414279
   44    46     0     0     0
SMALL
USER_CHARGES
N-benzyl-N-[(2-hydroxy-6-methyl-3-quinolyl)methyl]acetamide
@<TRIPOS>ATOM
      1 C1          1.3232    1.5200   -8.0956 C.3       1 <0>        -0.1167
      2 C2          1.4974    1.7735   -6.6202 C.ar      1 <0>        -0.0938
      3 C3          1.9228    0.7384   -5.7904 C.ar      1 <0>        -0.0820
      4 C4          2.0677    0.9281   -4.4498 C.ar      1 <0>        -0.1019
      5 C5          1.8321    2.1982   -3.8961 C.ar      1 <0>         0.1714
      6 C6          1.4053    3.2506   -4.7427 C.ar      1 <0>        -0.1324
      7 C7          1.2374    3.0114   -6.1156 C.ar      1 <0>        -0.0854
      8 C8          1.1573    4.5208   -4.1853 C.ar      1 <0>        -0.0021
      9 C9          1.3511    4.6868   -2.8460 C.ar      1 <0>        -0.2340
     10 C10         1.8068    3.6147   -2.0687 C.ar      1 <0>         0.3704
     11 N1          2.0052    2.4227   -2.5888 N.ar      1 <0>        -0.4968
     12 O1          2.0050    3.7980   -0.7401 O.3       1 <0>        -0.4740
     13 C11         1.0981    6.0283   -2.2075 C.3       1 <0>         0.1374
     14 N2         -0.1852    5.9987   -1.5012 N.am      1 <0>        -0.6091
     15 C12        -1.4330    6.2051   -2.2403 C.3       1 <0>         0.1527
     16 C13        -1.7066    7.6821   -2.3616 C.ar      1 <0>        -0.1094
     17 C14        -1.1371    8.4083   -3.3908 C.ar      1 <0>        -0.1084
     18 C15        -1.3884    9.7630   -3.5023 C.ar      1 <0>        -0.1216
     19 C16        -2.2088   10.3916   -2.5842 C.ar      1 <0>        -0.1140
     20 C17        -2.7737    9.6665   -1.5517 C.ar      1 <0>        -0.1198
     21 C18        -2.5267    8.3108   -1.4433 C.ar      1 <0>        -0.0979
     22 C19        -0.2175    5.7815   -0.1715 C.2       1 <0>         0.5097
     23 O2         -1.2795    5.6141    0.3900 O.2       1 <0>        -0.5210
     24 C20         1.0659    5.7466    0.6179 C.3       1 <0>        -0.2175
     25 H1          2.2590    1.7304   -8.6133 H         1 <0>         0.0733
     26 H2          1.0460    0.4780   -8.2550 H         1 <0>         0.0695
     27 H3          0.5385    2.1685   -8.4854 H         1 <0>         0.0682
     28 H4          2.1229   -0.2345   -6.2142 H         1 <0>         0.1327
     29 H5          2.3806    0.1107   -3.8172 H         1 <0>         0.1387
     30 H6          0.9085    3.8060   -6.7690 H         1 <0>         0.1307
     31 H7          0.8226    5.3412   -4.8028 H         1 <0>         0.1449
     32 H8          1.8138    4.7505   -0.5028 H         1 <0>         0.3991
     33 H9          1.0707    6.7984   -2.9784 H         1 <0>         0.1061
     34 H10         1.8971    6.2504   -1.5001 H         1 <0>         0.0979
     35 H11        -2.2544    5.7260   -1.7076 H         1 <0>         0.0999
     36 H12        -1.3422    5.7696   -3.2354 H         1 <0>         0.0859
     37 H13        -0.4961    7.9172   -4.1079 H         1 <0>         0.1191
     38 H14        -0.9435   10.3304   -4.3063 H         1 <0>         0.1232
     39 H15        -2.4049   11.4501   -2.6711 H         1 <0>         0.1228
     40 H16        -3.4112   10.1585   -0.8320 H         1 <0>         0.1235
     41 H17        -2.9713    7.7435   -0.6391 H         1 <0>         0.1254
     42 H18         1.8983    6.0221   -0.0296 H         1 <0>         0.0905
     43 H19         1.0017    6.4514    1.4469 H         1 <0>         0.1222
     44 H20         1.2256    4.7412    1.0073 H         1 <0>         0.1226
@<TRIPOS>BOND
     1    1    2 1
     2    1   25 1
     3    1   26 1
     4    1   27 1
     5    2    7 ar
     6    2    3 ar
     7    3    4 ar
     8    3   28 1
     9    4    5 ar
    10    4   29 1
    11    5    6 ar
    12    5   11 ar
    13    6    7 ar
    14    6    8 ar
    15    7   30 1
    16    8   31 1
    17    8    9 ar
    18    9   13 1
    19    9   10 ar
    20   10   11 ar
    21   10   12 1
    22   12   32 1
    23   13   14 1
    24   13   33 1
    25   13   34 1
    26   14   15 1
    27   14   22 am
    28   15   16 1
    29   15   35 1
    30   15   36 1
    31   16   21 ar
    32   16   17 ar
    33   17   18 ar
    34   17   37 1
    35   18   19 ar
    36   18   38 1
    37   19   20 ar
    38   19   39 1
    39   20   21 ar
    40   20   40 1
    41   21   41 1
    42   22   23 2
    43   22   24 1
    44   24   42 1
    45   24   43 1
    46   24   44 1
@<TRIPOS>MOLECULE
ZINC02327802
   55    58     0     0     0
SMALL
USER_CHARGES
2-diethylamino-1-[2-(2-naphthyl)-4-quinolyl]-ethanol
@<TRIPOS>ATOM
      1 C1          7.0053   11.3096   -1.5429 C.3       1 <0>        -0.1912
      2 C2          5.8645   11.9318   -0.7352 C.3       1 <0>        -0.0175
      3 C3          4.5056   12.0745   -2.7341 C.3       1 <0>        -0.0127
      4 C4          4.3757   13.5990   -2.7241 C.3       1 <0>        -0.1881
      5 C5          4.3482   10.1304   -1.2995 C.3       1 <0>        -0.0450
      6 C6          4.1837    9.6933    0.1575 C.3       1 <0>         0.1329
      7 H1          5.0504   10.0170    0.7339 H         1 <0>         0.1364
      8 C7          4.0699    8.1920    0.2218 C.ar      1 <0>        -0.0806
      9 C8          2.8501    7.5838    0.2474 C.ar      1 <0>        -0.1376
     10 C9          2.7687    6.1837    0.3069 C.ar      1 <0>         0.2138
     11 N1          3.8520    5.4313    0.3445 N.ar      1 <0>        -0.4543
     12 C10         5.0726    5.9723    0.3163 C.ar      1 <0>         0.1409
     13 C11         5.2214    7.3809    0.2565 C.ar      1 <0>        -0.0925
     14 C12         6.5081    7.9414    0.2334 C.ar      1 <0>        -0.1253
     15 C13         7.5987    7.1266    0.2678 C.ar      1 <0>        -0.0928
     16 C14         7.4552    5.7418    0.3266 C.ar      1 <0>        -0.0978
     17 C15         6.2234    5.1641    0.3509 C.ar      1 <0>        -0.0796
     18 C16         1.4356    5.5361    0.3342 C.ar      1 <0>        -0.0747
     19 C17         0.2757    6.3279    0.3008 C.ar      1 <0>        -0.1027
     20 C18        -0.9570    5.7591    0.3247 C.ar      1 <0>        -0.1019
     21 C19        -1.0844    4.3594    0.3836 C.ar      1 <0>        -0.0384
     22 C20        -2.3486    3.7469    0.4088 C.ar      1 <0>        -0.1129
     23 C21        -2.4399    2.3897    0.4607 C.ar      1 <0>        -0.1015
     24 C22        -1.2962    1.5943    0.5002 C.ar      1 <0>        -0.1131
     25 C23        -0.0548    2.1515    0.4773 C.ar      1 <0>        -0.0993
     26 C24         0.0793    3.5502    0.4183 C.ar      1 <0>        -0.0612
     27 C25         1.3442    4.1576    0.3927 C.ar      1 <0>        -0.0415
     28 O1          3.0020   10.2844    0.7017 O.3       1 <0>        -0.5417
     29 H2          7.9498   11.4753   -1.0248 H         1 <0>         0.1092
     30 H3          6.8327   10.2387   -1.6501 H         1 <0>         0.0790
     31 H4          7.0461   11.7715   -2.5294 H         1 <0>         0.0845
     32 H5          5.9773   13.0159   -0.7228 H         1 <0>         0.1348
     33 H6          5.8930   11.5518    0.2860 H         1 <0>         0.1276
     34 H7          5.4113   11.7906   -3.2701 H         1 <0>         0.1337
     35 H8          3.6382   11.6392   -3.2303 H         1 <0>         0.1284
     36 H9          3.4843   13.8840   -2.1653 H         1 <0>         0.0811
     37 H10         5.2557   14.0355   -2.2517 H         1 <0>         0.0804
     38 H11         4.2946   13.9635   -3.7481 H         1 <0>         0.1071
     39 H12         5.1985    9.6108   -1.7409 H         1 <0>         0.1463
     40 H13         3.4437    9.8857   -1.8565 H         1 <0>         0.1380
     41 H14         1.9484    8.1778    0.2217 H         1 <0>         0.1422
     42 H15         6.6326    9.0133    0.1875 H         1 <0>         0.1210
     43 H16         8.5880    7.5594    0.2493 H         1 <0>         0.1340
     44 H17         8.3358    5.1169    0.3530 H         1 <0>         0.1391
     45 H18         6.1296    4.0892    0.3969 H         1 <0>         0.1438
     46 H19         0.3656    7.4033    0.2559 H         1 <0>         0.1228
     47 H20        -1.8395    6.3811    0.2981 H         1 <0>         0.1335
     48 H21        -3.2441    4.3501    0.3825 H         1 <0>         0.1311
     49 H22        -3.4134    1.9224    0.4759 H         1 <0>         0.1286
     50 H23        -1.3965    0.5199    0.5452 H         1 <0>         0.1289
     51 H24         0.8229    1.5227    0.5047 H         1 <0>         0.1314
     52 H25         2.2389    3.5533    0.4189 H         1 <0>         0.1420
     53 H26         2.1900   10.0396    0.2370 H         1 <0>         0.3897
     54 N2          4.5580   11.5930   -1.3377 N.4       1 <0>        -0.3919
     55 H27         3.8135   12.0509   -0.7988 H         1 <0>         0.4336
@<TRIPOS>BOND
     1    1    2 1
     2    1   29 1
     3    1   30 1
     4    1   31 1
     5    2   32 1
     6    2   33 1
     7    2   54 1
     8    3    4 1
     9    3   34 1
    10    3   35 1
    11    3   54 1
    12    4   36 1
    13    4   37 1
    14    4   38 1
    15    5    6 1
    16    5   39 1
    17    5   40 1
    18    5   54 1
    19    6    7 1
    20    6    8 1
    21    6   28 1
    22    8   13 ar
    23    8    9 ar
    24    9   10 ar
    25    9   41 1
    26   10   11 ar
    27   10   18 1
    28   11   12 ar
    29   12   17 ar
    30   12   13 ar
    31   13   14 ar
    32   14   15 ar
    33   14   42 1
    34   15   16 ar
    35   15   43 1
    36   16   17 ar
    37   16   44 1
    38   17   45 1
    39   18   27 ar
    40   18   19 ar
    41   19   20 ar
    42   19   46 1
    43   20   21 ar
    44   20   47 1
    45   21   26 ar
    46   21   22 ar
    47   22   23 ar
    48   22   48 1
    49   23   24 ar
    50   23   49 1
    51   24   25 ar
    52   24   50 1
    53   25   26 ar
    54   25   51 1
    55   26   27 ar
    56   27   52 1
    57   28   53 1
    58   54   55 1
@<TRIPOS>MOLECULE
ZINC05343559
   41    42     0     0     0
SMALL
USER_CHARGES
3-butyl-5-[3-(4-chlorophenyl)prop-2-enoyl]-6-hydroxy-1H-pyrimidine-2,4-dione
@<TRIPOS>ATOM
      1 C1          1.4667    2.0263    0.0242 C.3       1 <0>        -0.1528
      2 C2          0.0261    1.5112    0.0231 C.3       1 <0>        -0.1195
      3 C3          0.0314   -0.0187    0.0145 C.3       1 <0>        -0.1344
      4 C4         -1.4092   -0.5338    0.0134 C.3       1 <0>         0.1088
      5 N1         -1.4041   -1.9988    0.0052 N.am      1 <0>        -0.5522
      6 C5         -1.4087   -2.6593   -1.1711 C.2       1 <0>         0.5812
      7 O1         -1.4176   -2.0506   -2.2253 O.2       1 <0>        -0.4904
      8 C6         -1.3980   -4.1264   -1.1537 C.2       1 <0>        -0.3799
      9 C7         -1.3937   -4.7670    0.0881 C.2       1 <0>         0.4797
     10 N2         -1.3950   -4.0107    1.2237 N.am      1 <0>        -0.6604
     11 H1         -1.3919   -4.4647    2.1147 H         1 <0>         0.4446
     12 C8         -1.4003   -2.6695    1.1691 C.2       1 <0>         0.7103
     13 O2         -1.4012   -2.0400    2.2090 O.2       1 <0>        -0.5189
     14 O3         -1.3889   -6.1109    0.1629 O.3       1 <0>        -0.4096
     15 C9         -1.3972   -4.8974   -2.4023 C.2       1 <0>         0.4571
     16 O4         -1.2862   -6.1107   -2.3693 O.2       1 <0>        -0.4606
     17 C10        -1.5298   -4.2087   -3.6887 C.2       1 <0>        -0.2207
     18 C11        -1.6329   -4.9225   -4.8282 C.2       1 <0>        -0.0370
     19 C12        -1.7661   -4.2308   -6.1202 C.ar      1 <0>        -0.0683
     20 C13        -1.7920   -2.8332   -6.1695 C.ar      1 <0>        -0.0874
     21 C14        -1.9122   -2.1919   -7.3837 C.ar      1 <0>        -0.1117
     22 C15        -2.0179   -2.9285   -8.5524 C.ar      1 <0>        -0.0276
     23 C16        -1.9982   -4.3133   -8.5106 C.ar      1 <0>        -0.1137
     24 C17        -1.8733   -4.9679   -7.3041 C.ar      1 <0>        -0.0857
     25 Cl1        -2.1762   -2.1125  -10.0765 Cl        1 <0>        -0.0675
     26 H2          1.4629    3.1163    0.0303 H         1 <0>         0.0575
     27 H3          1.9830    1.6598    0.9115 H         1 <0>         0.0539
     28 H4          1.9807    1.6698   -0.8684 H         1 <0>         0.0550
     29 H5         -0.4902    1.8777   -0.8642 H         1 <0>         0.0674
     30 H6         -0.4879    1.8677    0.9158 H         1 <0>         0.0662
     31 H7          0.5455   -0.3753   -0.8781 H         1 <0>         0.0711
     32 H8          0.5477   -0.3852    0.9018 H         1 <0>         0.0680
     33 H9         -1.9232   -0.1773    0.9061 H         1 <0>         0.1014
     34 H10        -1.9255   -0.1673   -0.8739 H         1 <0>         0.1059
     35 H11        -1.3864   -6.5013    1.0476 H         1 <0>         0.4187
     36 H12        -1.5450   -3.1294   -3.7243 H         1 <0>         0.1644
     37 H13        -1.6177   -6.0018   -4.7926 H         1 <0>         0.1326
     38 H14        -1.7139   -2.2578   -5.2589 H         1 <0>         0.1430
     39 H15        -1.9282   -1.1128   -7.4238 H         1 <0>         0.1370
     40 H16        -2.0814   -4.8811   -9.4255 H         1 <0>         0.1368
     41 H17        -1.8585   -6.0474   -7.2729 H         1 <0>         0.1374
@<TRIPOS>BOND
     1    1    2 1
     2    1   26 1
     3    1   27 1
     4    1   28 1
     5    2    3 1
     6    2   29 1
     7    2   30 1
     8    3    4 1
     9    3   31 1
    10    3   32 1
    11    4    5 1
    12    4   33 1
    13    4   34 1
    14    5   12 am
    15    5    6 am
    16    6    7 2
    17    6    8 1
    18    8    9 2
    19    8   15 1
    20    9   10 1
    21    9   14 1
    22   10   11 1
    23   10   12 am
    24   12   13 2
    25   14   35 1
    26   15   16 2
    27   15   17 1
    28   17   18 2
    29   17   36 1
    30   18   19 1
    31   18   37 1
    32   19   24 ar
    33   19   20 ar
    34   20   21 ar
    35   20   38 1
    36   21   22 ar
    37   21   39 1
    38   22   23 ar
    39   22   25 1
    40   23   24 ar
    41   23   40 1
    42   24   41 1
@<TRIPOS>MOLECULE
ZINC02328548
   55    58     0     0     0
SMALL
USER_CHARGES
2-diethylamino-1-[2-(2-naphthyl)-4-quinolyl]-ethanol
@<TRIPOS>ATOM
      1 C1          7.0053   11.3096   -1.5429 C.3       1 <0>        -0.1912
      2 C2          5.8645   11.9318   -0.7352 C.3       1 <0>        -0.0175
      3 C3          4.5056   12.0745   -2.7341 C.3       1 <0>        -0.0127
      4 C4          4.3757   13.5990   -2.7241 C.3       1 <0>        -0.1881
      5 C5          4.3482   10.1304   -1.2995 C.3       1 <0>        -0.0450
      6 C6          4.1837    9.6933    0.1575 C.3       1 <0>         0.1329
      7 H1          5.0504   10.0170    0.7339 H         1 <0>         0.1364
      8 C7          4.0699    8.1920    0.2218 C.ar      1 <0>        -0.0806
      9 C8          2.8501    7.5838    0.2474 C.ar      1 <0>        -0.1376
     10 C9          2.7687    6.1837    0.3069 C.ar      1 <0>         0.2138
     11 N1          3.8520    5.4313    0.3445 N.ar      1 <0>        -0.4543
     12 C10         5.0726    5.9723    0.3163 C.ar      1 <0>         0.1409
     13 C11         5.2214    7.3809    0.2565 C.ar      1 <0>        -0.0925
     14 C12         6.5081    7.9414    0.2334 C.ar      1 <0>        -0.1253
     15 C13         7.5987    7.1266    0.2678 C.ar      1 <0>        -0.0928
     16 C14         7.4552    5.7418    0.3266 C.ar      1 <0>        -0.0978
     17 C15         6.2234    5.1641    0.3509 C.ar      1 <0>        -0.0796
     18 C16         1.4356    5.5361    0.3342 C.ar      1 <0>        -0.0747
     19 C17         0.2757    6.3279    0.3008 C.ar      1 <0>        -0.1027
     20 C18        -0.9570    5.7591    0.3247 C.ar      1 <0>        -0.1019
     21 C19        -1.0844    4.3594    0.3836 C.ar      1 <0>        -0.0384
     22 C20        -2.3486    3.7469    0.4088 C.ar      1 <0>        -0.1129
     23 C21        -2.4399    2.3897    0.4607 C.ar      1 <0>        -0.1015
     24 C22        -1.2962    1.5943    0.5002 C.ar      1 <0>        -0.1131
     25 C23        -0.0548    2.1515    0.4773 C.ar      1 <0>        -0.0993
     26 C24         0.0793    3.5502    0.4183 C.ar      1 <0>        -0.0612
     27 C25         1.3442    4.1576    0.3927 C.ar      1 <0>        -0.0415
     28 O1          3.0020   10.2844    0.7017 O.3       1 <0>        -0.5417
     29 H2          7.9498   11.4753   -1.0248 H         1 <0>         0.1092
     30 H3          6.8327   10.2387   -1.6501 H         1 <0>         0.0790
     31 H4          7.0461   11.7715   -2.5294 H         1 <0>         0.0845
     32 H5          5.9773   13.0159   -0.7228 H         1 <0>         0.1348
     33 H6          5.8930   11.5518    0.2860 H         1 <0>         0.1276
     34 H7          5.4113   11.7906   -3.2701 H         1 <0>         0.1337
     35 H8          3.6382   11.6392   -3.2303 H         1 <0>         0.1284
     36 H9          3.4843   13.8840   -2.1653 H         1 <0>         0.0811
     37 H10         5.2557   14.0355   -2.2517 H         1 <0>         0.0804
     38 H11         4.2946   13.9635   -3.7481 H         1 <0>         0.1071
     39 H12         5.1985    9.6108   -1.7409 H         1 <0>         0.1463
     40 H13         3.4437    9.8857   -1.8565 H         1 <0>         0.1380
     41 H14         1.9484    8.1778    0.2217 H         1 <0>         0.1422
     42 H15         6.6326    9.0133    0.1875 H         1 <0>         0.1210
     43 H16         8.5880    7.5594    0.2493 H         1 <0>         0.1340
     44 H17         8.3358    5.1169    0.3530 H         1 <0>         0.1391
     45 H18         6.1296    4.0892    0.3969 H         1 <0>         0.1438
     46 H19         0.3656    7.4033    0.2559 H         1 <0>         0.1228
     47 H20        -1.8395    6.3811    0.2981 H         1 <0>         0.1335
     48 H21        -3.2441    4.3501    0.3825 H         1 <0>         0.1311
     49 H22        -3.4134    1.9224    0.4759 H         1 <0>         0.1286
     50 H23        -1.3965    0.5199    0.5452 H         1 <0>         0.1289
     51 H24         0.8229    1.5227    0.5047 H         1 <0>         0.1314
     52 H25         2.2389    3.5533    0.4189 H         1 <0>         0.1420
     53 H26         2.1900   10.0396    0.2370 H         1 <0>         0.3897
     54 N2          4.5580   11.5930   -1.3377 N.4       1 <0>        -0.3919
     55 H27         3.8135   12.0509   -0.7988 H         1 <0>         0.4336
@<TRIPOS>BOND
     1    1    2 1
     2    1   29 1
     3    1   30 1
     4    1   31 1
     5    2   32 1
     6    2   33 1
     7    2   54 1
     8    3    4 1
     9    3   34 1
    10    3   35 1
    11    3   54 1
    12    4   36 1
    13    4   37 1
    14    4   38 1
    15    5    6 1
    16    5   39 1
    17    5   40 1
    18    5   54 1
    19    6    7 1
    20    6    8 1
    21    6   28 1
    22    8   13 ar
    23    8    9 ar
    24    9   10 ar
    25    9   41 1
    26   10   11 ar
    27   10   18 1
    28   11   12 ar
    29   12   17 ar
    30   12   13 ar
    31   13   14 ar
    32   14   15 ar
    33   14   42 1
    34   15   16 ar
    35   15   43 1
    36   16   17 ar
    37   16   44 1
    38   17   45 1
    39   18   27 ar
    40   18   19 ar
    41   19   20 ar
    42   19   46 1
    43   20   21 ar
    44   20   47 1
    45   21   26 ar
    46   21   22 ar
    47   22   23 ar
    48   22   48 1
    49   23   24 ar
    50   23   49 1
    51   24   25 ar
    52   24   50 1
    53   25   26 ar
    54   25   51 1
    55   26   27 ar
    56   27   52 1
    57   28   53 1
    58   54   55 1
@<TRIPOS>MOLECULE
ZINC05343575
   36    38     0     0     0
SMALL
USER_CHARGES
2-(2,5-dichlorophenyl)-4-(methylaminomethylene)isoquinoline-1,3-dione
@<TRIPOS>ATOM
      1 C1          4.9541   -2.7374    0.6567 C.3       1 <0>         0.0298
      2 C2          2.5801   -3.1061   -0.0744 C.2       1 <0>         0.3823
      3 C3          1.3020   -2.6117   -0.2129 C.3       1 <0>        -0.1377
      4 C4          1.0600   -1.1631   -0.3765 C.ar      1 <0>        -0.0760
      5 C5          2.1032   -0.2445   -0.3973 C.ar      1 <0>        -0.1687
      6 C6          1.8252    1.0982   -0.5523 C.ar      1 <0>        -0.0498
      7 C7          0.5158    1.5363   -0.6867 C.ar      1 <0>        -0.0981
      8 C8         -0.5315    0.6406   -0.6685 C.ar      1 <0>        -0.0165
      9 C9         -0.2725   -0.7215   -0.5129 C.ar      1 <0>        -0.1173
     10 C10        -1.3591   -1.7088   -0.4876 C.2       1 <0>         0.5573
     11 O1         -2.5105   -1.3340   -0.6044 O.2       1 <0>        -0.4343
     12 N1         -1.1033   -3.0185   -0.3367 N.am      1 <0>        -0.5031
     13 C11         0.1401   -3.5077   -0.2020 C.2       1 <0>         0.5727
     14 O2          0.3049   -4.7065   -0.0691 O.2       1 <0>        -0.4417
     15 C12        -2.1810   -3.9141   -0.3196 C.ar      1 <0>         0.1157
     16 C13        -2.7975   -4.2375    0.8813 C.ar      1 <0>        -0.0699
     17 C14        -3.8602   -5.1213    0.8951 C.ar      1 <0>        -0.0239
     18 C15        -4.3102   -5.6831   -0.2871 C.ar      1 <0>        -0.0692
     19 C16        -3.6982   -5.3629   -1.4847 C.ar      1 <0>        -0.0846
     20 C17        -2.6383   -4.4756   -1.5053 C.ar      1 <0>        -0.0099
     21 Cl1        -1.8751   -4.0686   -3.0105 Cl        1 <0>        -0.0461
     22 Cl2        -4.6319   -5.5264    2.3965 Cl        1 <0>        -0.0334
     23 H1          5.5174   -1.9165    1.1004 H         1 <0>         0.1177
     24 H2          4.9862   -3.6009    1.3212 H         1 <0>         0.1195
     25 H3          5.3940   -3.0022   -0.3047 H         1 <0>         0.1168
     26 H4          1.6305   -2.5033   -1.1512 H         1 <0>         0.1974
     27 H5          2.8063   -4.1143   -0.3890 H         1 <0>         0.2429
     28 H6          3.1245   -0.5796   -0.2927 H         1 <0>         0.1422
     29 H7          2.6338    1.8140   -0.5688 H         1 <0>         0.1538
     30 H8          0.3149    2.5906   -0.8072 H         1 <0>         0.1562
     31 H9         -1.5472    0.9910   -0.7784 H         1 <0>         0.1619
     32 H10        -2.4468   -3.7994    1.8042 H         1 <0>         0.1490
     33 H11        -5.1412   -6.3727   -0.2741 H         1 <0>         0.1586
     34 H12        -4.0515   -5.8028   -2.4056 H         1 <0>         0.1599
     35 N2          3.5399   -2.2579    0.4787 N.pl3     1 <0>        -0.6102
     36 H13         3.2807   -1.3063    0.7642 H         1 <0>         0.4568
@<TRIPOS>BOND
     1    1   23 1
     2    1   24 1
     3    1   25 1
     4    1   35 1
     5    2   27 1
     6    2    3 1
     7    2   35 2
     8    3   13 1
     9    3    4 1
    10    3   26 1
    11    4    9 ar
    12    4    5 ar
    13    5    6 ar
    14    5   28 1
    15    6    7 ar
    16    6   29 1
    17    7    8 ar
    18    7   30 1
    19    8    9 ar
    20    8   31 1
    21    9   10 1
    22   10   11 2
    23   10   12 am
    24   12   13 am
    25   12   15 1
    26   13   14 2
    27   15   20 ar
    28   15   16 ar
    29   16   17 ar
    30   16   32 1
    31   17   18 ar
    32   17   22 1
    33   18   19 ar
    34   18   33 1
    35   19   20 ar
    36   19   34 1
    37   20   21 1
    38   35   36 1
@<TRIPOS>MOLECULE
ZINC02328808
   55    58     0     0     0
SMALL
USER_CHARGES
2-diethylamino-1-[2-(2-naphthyl)-4-quinolyl]-ethanol
@<TRIPOS>ATOM
      1 C1          7.0053   11.3096   -1.5429 C.3       1 <0>        -0.1912
      2 C2          5.8645   11.9318   -0.7352 C.3       1 <0>        -0.0175
      3 C3          4.5056   12.0745   -2.7341 C.3       1 <0>        -0.0127
      4 C4          4.3757   13.5990   -2.7241 C.3       1 <0>        -0.1881
      5 C5          4.3482   10.1304   -1.2995 C.3       1 <0>        -0.0450
      6 C6          4.1837    9.6933    0.1575 C.3       1 <0>         0.1329
      7 H1          5.0504   10.0170    0.7339 H         1 <0>         0.1364
      8 C7          4.0699    8.1920    0.2218 C.ar      1 <0>        -0.0806
      9 C8          2.8501    7.5838    0.2474 C.ar      1 <0>        -0.1376
     10 C9          2.7687    6.1837    0.3069 C.ar      1 <0>         0.2138
     11 N1          3.8520    5.4313    0.3445 N.ar      1 <0>        -0.4543
     12 C10         5.0726    5.9723    0.3163 C.ar      1 <0>         0.1409
     13 C11         5.2214    7.3809    0.2565 C.ar      1 <0>        -0.0925
     14 C12         6.5081    7.9414    0.2334 C.ar      1 <0>        -0.1253
     15 C13         7.5987    7.1266    0.2678 C.ar      1 <0>        -0.0928
     16 C14         7.4552    5.7418    0.3266 C.ar      1 <0>        -0.0978
     17 C15         6.2234    5.1641    0.3509 C.ar      1 <0>        -0.0796
     18 C16         1.4356    5.5361    0.3342 C.ar      1 <0>        -0.0747
     19 C17         0.2757    6.3279    0.3008 C.ar      1 <0>        -0.1027
     20 C18        -0.9570    5.7591    0.3247 C.ar      1 <0>        -0.1019
     21 C19        -1.0844    4.3594    0.3836 C.ar      1 <0>        -0.0384
     22 C20        -2.3486    3.7469    0.4088 C.ar      1 <0>        -0.1129
     23 C21        -2.4399    2.3897    0.4607 C.ar      1 <0>        -0.1015
     24 C22        -1.2962    1.5943    0.5002 C.ar      1 <0>        -0.1131
     25 C23        -0.0548    2.1515    0.4773 C.ar      1 <0>        -0.0993
     26 C24         0.0793    3.5502    0.4183 C.ar      1 <0>        -0.0612
     27 C25         1.3442    4.1576    0.3927 C.ar      1 <0>        -0.0415
     28 O1          3.0020   10.2844    0.7017 O.3       1 <0>        -0.5417
     29 H2          7.9498   11.4753   -1.0248 H         1 <0>         0.1092
     30 H3          6.8327   10.2387   -1.6501 H         1 <0>         0.0790
     31 H4          7.0461   11.7715   -2.5294 H         1 <0>         0.0845
     32 H5          5.9773   13.0159   -0.7228 H         1 <0>         0.1348
     33 H6          5.8930   11.5518    0.2860 H         1 <0>         0.1276
     34 H7          5.4113   11.7906   -3.2701 H         1 <0>         0.1337
     35 H8          3.6382   11.6392   -3.2303 H         1 <0>         0.1284
     36 H9          3.4843   13.8840   -2.1653 H         1 <0>         0.0811
     37 H10         5.2557   14.0355   -2.2517 H         1 <0>         0.0804
     38 H11         4.2946   13.9635   -3.7481 H         1 <0>         0.1071
     39 H12         5.1985    9.6108   -1.7409 H         1 <0>         0.1463
     40 H13         3.4437    9.8857   -1.8565 H         1 <0>         0.1380
     41 H14         1.9484    8.1778    0.2217 H         1 <0>         0.1422
     42 H15         6.6326    9.0133    0.1875 H         1 <0>         0.1210
     43 H16         8.5880    7.5594    0.2493 H         1 <0>         0.1340
     44 H17         8.3358    5.1169    0.3530 H         1 <0>         0.1391
     45 H18         6.1296    4.0892    0.3969 H         1 <0>         0.1438
     46 H19         0.3656    7.4033    0.2559 H         1 <0>         0.1228
     47 H20        -1.8395    6.3811    0.2981 H         1 <0>         0.1335
     48 H21        -3.2441    4.3501    0.3825 H         1 <0>         0.1311
     49 H22        -3.4134    1.9224    0.4759 H         1 <0>         0.1286
     50 H23        -1.3965    0.5199    0.5452 H         1 <0>         0.1289
     51 H24         0.8229    1.5227    0.5047 H         1 <0>         0.1314
     52 H25         2.2389    3.5533    0.4189 H         1 <0>         0.1420
     53 H26         2.1900   10.0396    0.2370 H         1 <0>         0.3897
     54 N2          4.5580   11.5930   -1.3377 N.4       1 <0>        -0.3919
     55 H27         3.8135   12.0509   -0.7988 H         1 <0>         0.4336
@<TRIPOS>BOND
     1    1    2 1
     2    1   29 1
     3    1   30 1
     4    1   31 1
     5    2   32 1
     6    2   33 1
     7    2   54 1
     8    3    4 1
     9    3   34 1
    10    3   35 1
    11    3   54 1
    12    4   36 1
    13    4   37 1
    14    4   38 1
    15    5    6 1
    16    5   39 1
    17    5   40 1
    18    5   54 1
    19    6    7 1
    20    6    8 1
    21    6   28 1
    22    8   13 ar
    23    8    9 ar
    24    9   10 ar
    25    9   41 1
    26   10   11 ar
    27   10   18 1
    28   11   12 ar
    29   12   17 ar
    30   12   13 ar
    31   13   14 ar
    32   14   15 ar
    33   14   42 1
    34   15   16 ar
    35   15   43 1
    36   16   17 ar
    37   16   44 1
    38   17   45 1
    39   18   27 ar
    40   18   19 ar
    41   19   20 ar
    42   19   46 1
    43   20   21 ar
    44   20   47 1
    45   21   26 ar
    46   21   22 ar
    47   22   23 ar
    48   22   48 1
    49   23   24 ar
    50   23   49 1
    51   24   25 ar
    52   24   50 1
    53   25   26 ar
    54   25   51 1
    55   26   27 ar
    56   27   52 1
    57   28   53 1
    58   54   55 1
@<TRIPOS>MOLECULE
ZINC02329497
   55    58     0     0     0
SMALL
USER_CHARGES
2-diethylamino-1-[2-(2-naphthyl)-4-quinolyl]-ethanol
@<TRIPOS>ATOM
      1 C1          7.0053   11.3096   -1.5429 C.3       1 <0>        -0.1912
      2 C2          5.8645   11.9318   -0.7352 C.3       1 <0>        -0.0175
      3 C3          4.5056   12.0745   -2.7341 C.3       1 <0>        -0.0127
      4 C4          4.3757   13.5990   -2.7241 C.3       1 <0>        -0.1881
      5 C5          4.3482   10.1304   -1.2995 C.3       1 <0>        -0.0450
      6 C6          4.1837    9.6933    0.1575 C.3       1 <0>         0.1329
      7 H1          5.0504   10.0170    0.7339 H         1 <0>         0.1364
      8 C7          4.0699    8.1920    0.2218 C.ar      1 <0>        -0.0806
      9 C8          2.8501    7.5838    0.2474 C.ar      1 <0>        -0.1376
     10 C9          2.7687    6.1837    0.3069 C.ar      1 <0>         0.2138
     11 N1          3.8520    5.4313    0.3445 N.ar      1 <0>        -0.4543
     12 C10         5.0726    5.9723    0.3163 C.ar      1 <0>         0.1409
     13 C11         5.2214    7.3809    0.2565 C.ar      1 <0>        -0.0925
     14 C12         6.5081    7.9414    0.2334 C.ar      1 <0>        -0.1253
     15 C13         7.5987    7.1266    0.2678 C.ar      1 <0>        -0.0928
     16 C14         7.4552    5.7418    0.3266 C.ar      1 <0>        -0.0978
     17 C15         6.2234    5.1641    0.3509 C.ar      1 <0>        -0.0796
     18 C16         1.4356    5.5361    0.3342 C.ar      1 <0>        -0.0747
     19 C17         0.2757    6.3279    0.3008 C.ar      1 <0>        -0.1027
     20 C18        -0.9570    5.7591    0.3247 C.ar      1 <0>        -0.1019
     21 C19        -1.0844    4.3594    0.3836 C.ar      1 <0>        -0.0384
     22 C20        -2.3486    3.7469    0.4088 C.ar      1 <0>        -0.1129
     23 C21        -2.4399    2.3897    0.4607 C.ar      1 <0>        -0.1015
     24 C22        -1.2962    1.5943    0.5002 C.ar      1 <0>        -0.1131
     25 C23        -0.0548    2.1515    0.4773 C.ar      1 <0>        -0.0993
     26 C24         0.0793    3.5502    0.4183 C.ar      1 <0>        -0.0612
     27 C25         1.3442    4.1576    0.3927 C.ar      1 <0>        -0.0415
     28 O1          3.0020   10.2844    0.7017 O.3       1 <0>        -0.5417
     29 H2          7.9498   11.4753   -1.0248 H         1 <0>         0.1092
     30 H3          6.8327   10.2387   -1.6501 H         1 <0>         0.0790
     31 H4          7.0461   11.7715   -2.5294 H         1 <0>         0.0845
     32 H5          5.9773   13.0159   -0.7228 H         1 <0>         0.1348
     33 H6          5.8930   11.5518    0.2860 H         1 <0>         0.1276
     34 H7          5.4113   11.7906   -3.2701 H         1 <0>         0.1337
     35 H8          3.6382   11.6392   -3.2303 H         1 <0>         0.1284
     36 H9          3.4843   13.8840   -2.1653 H         1 <0>         0.0811
     37 H10         5.2557   14.0355   -2.2517 H         1 <0>         0.0804
     38 H11         4.2946   13.9635   -3.7481 H         1 <0>         0.1071
     39 H12         5.1985    9.6108   -1.7409 H         1 <0>         0.1463
     40 H13         3.4437    9.8857   -1.8565 H         1 <0>         0.1380
     41 H14         1.9484    8.1778    0.2217 H         1 <0>         0.1422
     42 H15         6.6326    9.0133    0.1875 H         1 <0>         0.1210
     43 H16         8.5880    7.5594    0.2493 H         1 <0>         0.1340
     44 H17         8.3358    5.1169    0.3530 H         1 <0>         0.1391
     45 H18         6.1296    4.0892    0.3969 H         1 <0>         0.1438
     46 H19         0.3656    7.4033    0.2559 H         1 <0>         0.1228
     47 H20        -1.8395    6.3811    0.2981 H         1 <0>         0.1335
     48 H21        -3.2441    4.3501    0.3825 H         1 <0>         0.1311
     49 H22        -3.4134    1.9224    0.4759 H         1 <0>         0.1286
     50 H23        -1.3965    0.5199    0.5452 H         1 <0>         0.1289
     51 H24         0.8229    1.5227    0.5047 H         1 <0>         0.1314
     52 H25         2.2389    3.5533    0.4189 H         1 <0>         0.1420
     53 H26         2.1900   10.0396    0.2370 H         1 <0>         0.3897
     54 N2          4.5580   11.5930   -1.3377 N.4       1 <0>        -0.3919
     55 H27         3.8135   12.0509   -0.7988 H         1 <0>         0.4336
@<TRIPOS>BOND
     1    1    2 1
     2    1   29 1
     3    1   30 1
     4    1   31 1
     5    2   32 1
     6    2   33 1
     7    2   54 1
     8    3    4 1
     9    3   34 1
    10    3   35 1
    11    3   54 1
    12    4   36 1
    13    4   37 1
    14    4   38 1
    15    5    6 1
    16    5   39 1
    17    5   40 1
    18    5   54 1
    19    6    7 1
    20    6    8 1
    21    6   28 1
    22    8   13 ar
    23    8    9 ar
    24    9   10 ar
    25    9   41 1
    26   10   11 ar
    27   10   18 1
    28   11   12 ar
    29   12   17 ar
    30   12   13 ar
    31   13   14 ar
    32   14   15 ar
    33   14   42 1
    34   15   16 ar
    35   15   43 1
    36   16   17 ar
    37   16   44 1
    38   17   45 1
    39   18   27 ar
    40   18   19 ar
    41   19   20 ar
    42   19   46 1
    43   20   21 ar
    44   20   47 1
    45   21   26 ar
    46   21   22 ar
    47   22   23 ar
    48   22   48 1
    49   23   24 ar
    50   23   49 1
    51   24   25 ar
    52   24   50 1
    53   25   26 ar
    54   25   51 1
    55   26   27 ar
    56   27   52 1
    57   28   53 1
    58   54   55 1
@<TRIPOS>MOLECULE
ZINC05343585
   38    40     0     0     0
SMALL
USER_CHARGES
2-(4-hydroxy-2-oxo-1H-quinolin-3-yl)-N-(4-methyl-2-pyridyl)-acetamide
@<TRIPOS>ATOM
      1 C1         -8.4195    8.9519    4.9733 C.3       1 <0>        -0.1182
      2 C2         -7.1243    8.2544    4.6461 C.ar      1 <0>        -0.0147
      3 C3         -6.2676    7.8375    5.6560 C.ar      1 <0>        -0.2046
      4 C4         -5.0883    7.2016    5.3224 C.ar      1 <0>         0.1357
      5 N1         -4.7690    6.9868    4.0605 N.ar      1 <0>        -0.4814
      6 C5         -5.5590    7.3690    3.0698 C.ar      1 <0>         0.3611
      7 C6         -6.7592    8.0200    3.3322 C.ar      1 <0>        -0.2097
      8 N2         -5.1816    7.1219    1.7507 N.am      1 <0>        -0.6631
      9 C7         -4.0722    6.4019    1.4909 C.2       1 <0>         0.4936
     10 O1         -3.3524    6.0477    2.4004 O.2       1 <0>        -0.4515
     11 C8         -3.7263    6.0370    0.0702 C.3       1 <0>        -0.0898
     12 C9         -2.4490    5.2375    0.0538 C.ar      1 <0>        -0.2964
     13 C10        -2.4998    3.8725    0.0476 C.ar      1 <0>         0.2578
     14 C11        -1.2339    3.1271    0.0309 C.ar      1 <0>        -0.1990
     15 C12        -1.2168    1.7303    0.0183 C.ar      1 <0>        -0.0823
     16 C13        -0.0218    1.0673    0.0088 C.ar      1 <0>        -0.1400
     17 C14         1.1749    1.7700   -0.0004 C.ar      1 <0>        -0.0767
     18 C15         1.1807    3.1483    0.0063 C.ar      1 <0>        -0.1146
     19 C16        -0.0241    3.8433    0.0220 C.ar      1 <0>         0.2010
     20 N3         -0.0481    5.2229    0.0291 N.ar      1 <0>        -0.5554
     21 H1         -2.1247    7.4673    0.0630 H         1 <0>         0.4153
     22 C17        -1.2104    5.8975    0.0448 C.ar      1 <0>         0.4458
     23 O2         -1.1882    7.1169    0.0515 O.3       1 <0>        -0.3911
     24 O3         -3.6867    3.2229    0.0566 O.3       1 <0>        -0.4553
     25 H2         -8.2512   10.0278    5.0192 H         1 <0>         0.0795
     26 H3         -9.1559    8.7320    4.2004 H         1 <0>         0.0722
     27 H4         -8.7881    8.6003    5.9369 H         1 <0>         0.0742
     28 H5         -6.5208    8.0091    6.6918 H         1 <0>         0.1362
     29 H6         -4.4188    6.8755    6.1045 H         1 <0>         0.1595
     30 H7         -7.3998    8.3348    2.5217 H         1 <0>         0.1355
     31 H8         -5.7173    7.4681    1.0200 H         1 <0>         0.4179
     32 H9         -3.5936    6.9460   -0.5164 H         1 <0>         0.1035
     33 H10        -4.5328    5.4422   -0.3587 H         1 <0>         0.1250
     34 H11        -2.1441    1.1767    0.0203 H         1 <0>         0.1225
     35 H12        -0.0086   -0.0126    0.0037 H         1 <0>         0.1294
     36 H13         2.1110    1.2316   -0.0127 H         1 <0>         0.1330
     37 H14         2.1170    3.6865   -0.0010 H         1 <0>         0.1386
     38 H15        -3.6077    2.2591    0.0511 H         1 <0>         0.4064
@<TRIPOS>BOND
     1    1    2 1
     2    1   25 1
     3    1   26 1
     4    1   27 1
     5    2    7 ar
     6    2    3 ar
     7    3    4 ar
     8    3   28 1
     9    4    5 ar
    10    4   29 1
    11    5    6 ar
    12    6    7 ar
    13    6    8 1
    14    7   30 1
    15    8    9 am
    16    8   31 1
    17    9   10 2
    18    9   11 1
    19   11   12 1
    20   11   32 1
    21   11   33 1
    22   12   22 ar
    23   12   13 ar
    24   13   24 1
    25   13   14 ar
    26   14   15 ar
    27   14   19 ar
    28   15   16 ar
    29   15   34 1
    30   16   17 ar
    31   16   35 1
    32   17   18 ar
    33   17   36 1
    34   18   19 ar
    35   18   37 1
    36   19   20 ar
    37   20   22 ar
    38   21   23 1
    39   22   23 1
    40   24   38 1
@<TRIPOS>MOLECULE
ZINC05343586
   46    48     0     0     0
SMALL
USER_CHARGES
2-(2,3-dimethylphenyl)-4-(2-hydroxyethylaminomethylene)isoquinoline-1,3-dione
@<TRIPOS>ATOM
      1 C1         -1.6665   10.2883    7.0324 C.3       1 <0>        -0.1222
      2 C2         -2.4368    9.4012    6.0886 C.ar      1 <0>        -0.0737
      3 C3         -3.6640    9.8122    5.6008 C.ar      1 <0>        -0.0887
      4 C4         -4.3734    9.0014    4.7344 C.ar      1 <0>        -0.1073
      5 C5         -3.8561    7.7797    4.3498 C.ar      1 <0>        -0.0904
      6 C6         -2.6272    7.3618    4.8421 C.ar      1 <0>         0.0924
      7 C7         -1.9167    8.1787    5.7119 C.ar      1 <0>        -0.0589
      8 C8         -0.5799    7.7312    6.2446 C.3       1 <0>        -0.1221
      9 N1         -2.1020    6.1211    4.4578 N.am      1 <0>        -0.4991
     10 C9         -2.3972    5.0413    5.1998 C.2       1 <0>         0.5542
     11 O1         -3.1075    5.1650    6.1795 O.2       1 <0>        -0.4367
     12 C10        -1.8762    3.7141    4.8487 C.ar      1 <0>        -0.1145
     13 C11        -2.1781    2.5883    5.6158 C.ar      1 <0>        -0.0224
     14 C12        -1.6693    1.3599    5.2535 C.ar      1 <0>        -0.0965
     15 C13        -0.8600    1.2300    4.1341 C.ar      1 <0>        -0.0566
     16 C14        -0.5489    2.3308    3.3623 C.ar      1 <0>        -0.1550
     17 C15        -1.0585    3.5771    3.7077 C.ar      1 <0>        -0.0631
     18 C16        -0.7515    4.7888    2.9194 C.3       1 <0>        -0.1383
     19 C17         0.0454    4.7222    1.7978 C.2       1 <0>         0.3781
     20 C18         0.9286    3.3735   -0.1276 C.3       1 <0>         0.0659
     21 C19         0.7456    1.9445   -0.6427 C.3       1 <0>         0.0464
     22 O2         -0.6077    1.7591   -1.0624 O.3       1 <0>        -0.5764
     23 C20        -1.3254    6.0639    3.3636 C.2       1 <0>         0.5692
     24 O3         -1.0957    7.0801    2.7339 O.2       1 <0>        -0.4545
     25 H1         -1.0134   10.9473    6.4602 H         1 <0>         0.0780
     26 H2         -2.3636   10.8871    7.6187 H         1 <0>         0.0751
     27 H3         -1.0653    9.6721    7.7010 H         1 <0>         0.0731
     28 H4         -4.0687   10.7686    5.8971 H         1 <0>         0.1360
     29 H5         -5.3313    9.3252    4.3549 H         1 <0>         0.1379
     30 H6         -4.4089    7.1485    3.6696 H         1 <0>         0.1272
     31 H7          0.2100    8.0682    5.5733 H         1 <0>         0.0762
     32 H8         -0.4220    8.1584    7.2349 H         1 <0>         0.0868
     33 H9         -0.5609    6.6434    6.3109 H         1 <0>         0.0529
     34 H10        -2.8075    2.6791    6.4887 H         1 <0>         0.1600
     35 H11        -1.9034    0.4886    5.8473 H         1 <0>         0.1545
     36 H12        -0.4699    0.2596    3.8649 H         1 <0>         0.1511
     37 H13         0.0818    2.2237    2.4921 H         1 <0>         0.1371
     38 H14         0.6131    5.5866    1.4866 H         1 <0>         0.2382
     39 H15         0.0792    5.2165    3.2757 H         1 <0>         0.1764
     40 H16         1.9790    3.5426    0.1092 H         1 <0>         0.1384
     41 H17         0.6108    4.0797   -0.8947 H         1 <0>         0.1349
     42 H18         0.9787    1.2383    0.1542 H         1 <0>         0.0671
     43 H19         1.4142    1.7739   -1.4865 H         1 <0>         0.0955
     44 H20        -0.7966    0.8735   -1.4016 H         1 <0>         0.4046
     45 N2          0.0783    3.5115    1.1051 N.pl3     1 <0>        -0.5890
     46 H21        -0.4779    2.7149    1.4369 H         1 <0>         0.4580
@<TRIPOS>BOND
     1    1    2 1
     2    1   25 1
     3    1   26 1
     4    1   27 1
     5    2    7 ar
     6    2    3 ar
     7    3    4 ar
     8    3   28 1
     9    4    5 ar
    10    4   29 1
    11    5    6 ar
    12    5   30 1
    13    6    7 ar
    14    6    9 1
    15    7    8 1
    16    8   31 1
    17    8   32 1
    18    8   33 1
    19    9   23 am
    20    9   10 am
    21   10   11 2
    22   10   12 1
    23   12   17 ar
    24   12   13 ar
    25   13   14 ar
    26   13   34 1
    27   14   15 ar
    28   14   35 1
    29   15   16 ar
    30   15   36 1
    31   16   17 ar
    32   16   37 1
    33   17   18 1
    34   18   23 1
    35   18   39 1
    36   18   19 1
    37   19   38 1
    38   19   45 2
    39   20   21 1
    40   20   40 1
    41   20   41 1
    42   20   45 1
    43   21   22 1
    44   21   42 1
    45   21   43 1
    46   22   44 1
    47   23   24 2
    48   45   46 1
@<TRIPOS>MOLECULE
ZINC05343590
   46    48     0     0     0
SMALL
USER_CHARGES
N-(2,6-dimethylphenyl)-5-(2-hydroxy-3,5-dimethyl-phenyl)-2H-pyrazole-3-carboxamide
@<TRIPOS>ATOM
      1 C1          5.7607   -5.9379    0.5699 C.3       1 <0>        -0.1107
      2 C2          7.2459   -6.0048    0.3239 C.ar      1 <0>        -0.0671
      3 C3          7.8970   -7.2225    0.3508 C.ar      1 <0>        -0.1136
      4 C4          9.2608   -7.2841    0.1308 C.ar      1 <0>        -0.1120
      5 C5          9.9765   -6.1280   -0.1216 C.ar      1 <0>        -0.1145
      6 C6          9.3307   -4.9077   -0.1547 C.ar      1 <0>        -0.0905
      7 C7          7.9609   -4.8424    0.0654 C.ar      1 <0>         0.1305
      8 N1          7.3040   -3.6084    0.0326 N.am      1 <0>        -0.6720
      9 C8          6.2156   -3.4449   -0.7453 C.2       1 <0>         0.5919
     10 O1          5.8435   -4.3494   -1.4686 O.2       1 <0>        -0.4937
     11 C9          5.4774   -2.1721   -0.7198 C.2       1 <0>        -0.0434
     12 C10         4.3471   -1.8564   -1.4498 C.2       1 <0>        -0.1309
     13 C11         4.0254   -0.5366   -1.0835 C.2       1 <0>         0.0674
     14 N2          4.9148   -0.1422   -0.1967 N.2       1 <0>        -0.2289
     15 N3          5.7709   -1.0711    0.0347 N.pl3     1 <0>        -0.3786
     16 H1          6.5381   -0.9994    0.6721 H         1 <0>         0.4516
     17 C12         2.8863    0.2634   -1.5985 C.ar      1 <0>        -0.0302
     18 C13         2.0177   -0.2823   -2.5402 C.ar      1 <0>        -0.0921
     19 C14         0.9595    0.4654   -3.0159 C.ar      1 <0>        -0.0879
     20 C15         0.7581    1.7564   -2.5604 C.ar      1 <0>        -0.1004
     21 C16         1.6143    2.3073   -1.6259 C.ar      1 <0>        -0.1073
     22 C17         2.6806    1.5675   -1.1401 C.ar      1 <0>         0.1220
     23 O2          3.5232    2.1082   -0.2218 O.3       1 <0>        -0.4775
     24 C18         1.3884    3.7142   -1.1351 C.3       1 <0>        -0.1083
     25 C19         0.0204   -0.1261   -4.0354 C.3       1 <0>        -0.1150
     26 C20        10.1114   -3.6484   -0.4298 C.3       1 <0>        -0.1166
     27 H2          5.2287   -6.1784   -0.3506 H         1 <0>         0.0862
     28 H3          5.4881   -6.6543    1.3449 H         1 <0>         0.0650
     29 H4          5.4909   -4.9326    0.8934 H         1 <0>         0.0544
     30 H5          7.3410   -8.1272    0.5480 H         1 <0>         0.1276
     31 H6          9.7683   -8.2371    0.1565 H         1 <0>         0.1267
     32 H7         11.0416   -6.1795   -0.2926 H         1 <0>         0.1275
     33 H8          7.6316   -2.8701    0.5696 H         1 <0>         0.4027
     34 H9          3.8238   -2.4873   -2.1530 H         1 <0>         0.1683
     35 H10         2.1716   -1.2897   -2.8978 H         1 <0>         0.1305
     36 H11        -0.0692    2.3376   -2.9401 H         1 <0>         0.1281
     37 H12         4.2781    2.5742   -0.6069 H         1 <0>         0.3857
     38 H13         0.7392    3.6938   -0.2598 H         1 <0>         0.0727
     39 H14         2.3448    4.1636   -0.8677 H         1 <0>         0.0681
     40 H15         0.9180    4.3026   -1.9228 H         1 <0>         0.0665
     41 H16         0.3889    0.0911   -5.0380 H         1 <0>         0.0725
     42 H17        -0.0354   -1.2055   -3.8948 H         1 <0>         0.0687
     43 H18        -0.9715    0.3083   -3.9108 H         1 <0>         0.0683
     44 H19        10.4670   -3.2285    0.5112 H         1 <0>         0.0725
     45 H20        10.9633   -3.8812   -1.0687 H         1 <0>         0.0731
     46 H21         9.4686   -2.9245   -0.9307 H         1 <0>         0.0630
@<TRIPOS>BOND
     1    1    2 1
     2    1   27 1
     3    1   28 1
     4    1   29 1
     5    2    7 ar
     6    2    3 ar
     7    3    4 ar
     8    3   30 1
     9    4    5 ar
    10    4   31 1
    11    5    6 ar
    12    5   32 1
    13    6    7 ar
    14    6   26 1
    15    7    8 1
    16    8    9 am
    17    8   33 1
    18    9   10 2
    19    9   11 1
    20   11   15 1
    21   11   12 2
    22   12   13 1
    23   12   34 1
    24   13   14 2
    25   13   17 1
    26   14   15 1
    27   15   16 1
    28   17   22 ar
    29   17   18 ar
    30   18   19 ar
    31   18   35 1
    32   19   20 ar
    33   19   25 1
    34   20   21 ar
    35   20   36 1
    36   21   22 ar
    37   21   24 1
    38   22   23 1
    39   23   37 1
    40   24   38 1
    41   24   39 1
    42   24   40 1
    43   25   41 1
    44   25   42 1
    45   25   43 1
    46   26   44 1
    47   26   45 1
    48   26   46 1
@<TRIPOS>MOLECULE
ZINC00487867
   42    44     0     0     0
SMALL
USER_CHARGES
4-benzoyl-3-hydroxy-5-(4-hydroxy-3-methoxy-phenyl)-1-methyl-5H-pyrrol-2-one
@<TRIPOS>ATOM
      1 C1         -1.7726    7.5765   -0.3858 C.3       1 <0>         0.1041
      2 N1         -0.3270    7.3798   -0.2529 N.am      1 <0>        -0.6058
      3 C2          0.3643    6.0883   -0.1637 C.3       1 <0>         0.2745
      4 H1          0.1817    5.5016   -1.0640 H         1 <0>         0.0850
      5 C3          1.8363    6.4057   -0.0403 C.2       1 <0>        -0.5616
      6 C4          1.9479    7.7546   -0.0591 C.2       1 <0>         0.3156
      7 C5          0.6018    8.3513   -0.1912 C.2       1 <0>         0.5091
      8 O1          0.3687    9.5428   -0.2373 O.2       1 <0>        -0.4978
      9 O2          3.1068    8.4467    0.0289 O.2       1 <0>        -0.5850
     10 C6          2.9322    5.4394    0.0771 C.2       1 <0>         0.5162
     11 O3          3.5816    5.3778    1.1041 O.3       1 <0>        -0.3223
     12 C7          3.2485    4.5395   -1.0527 C.ar      1 <0>        -0.1519
     13 C8          2.5515    4.6545   -2.2574 C.ar      1 <0>        -0.0274
     14 C9          2.8553    3.8152   -3.3090 C.ar      1 <0>        -0.1351
     15 C10         3.8407    2.8537   -3.1687 C.ar      1 <0>        -0.0550
     16 C11         4.5314    2.7306   -1.9758 C.ar      1 <0>        -0.1351
     17 C12         4.2417    3.5670   -0.9180 C.ar      1 <0>        -0.0495
     18 C13        -0.1062    5.3314    1.0515 C.ar      1 <0>        -0.0700
     19 C14        -0.3771    6.0106    2.2249 C.ar      1 <0>        -0.1190
     20 C15        -0.8094    5.3209    3.3423 C.ar      1 <0>        -0.1030
     21 C16        -0.9716    3.9459    3.2880 C.ar      1 <0>         0.0784
     22 C17        -0.6984    3.2622    2.1071 C.ar      1 <0>         0.1062
     23 C18        -0.2600    3.9589    0.9924 C.ar      1 <0>        -0.1887
     24 O4         -0.8561    1.9127    2.0488 O.3       1 <0>        -0.3057
     25 C19        -0.4410    1.2624    0.8460 C.3       1 <0>         0.0249
     26 O5         -1.3963    3.2658    4.3865 O.3       1 <0>        -0.4855
     27 H2         -2.2223    7.6469    0.6047 H         1 <0>         0.0608
     28 H3         -1.9649    8.4962   -0.9383 H         1 <0>         0.0806
     29 H4         -2.2062    6.7327   -0.9225 H         1 <0>         0.0748
     30 H5          3.2361    6.0510    1.7578 H         1 <0>         0.4615
     31 H6          1.7792    5.4015   -2.3667 H         1 <0>         0.1461
     32 H7          2.3201    3.9060   -4.2427 H         1 <0>         0.1417
     33 H8          4.0715    2.1962   -3.9938 H         1 <0>         0.1381
     34 H9          5.2992    1.9780   -1.8730 H         1 <0>         0.1398
     35 H10         4.7815    3.4698    0.0124 H         1 <0>         0.1406
     36 H11        -0.2511    7.0823    2.2685 H         1 <0>         0.1277
     37 H12        -1.0204    5.8538    4.2577 H         1 <0>         0.1387
     38 H13        -0.0427    3.4301    0.0762 H         1 <0>         0.1324
     39 H14        -0.5433    0.1835    0.9624 H         1 <0>         0.1028
     40 H15         0.6008    1.5085    0.6409 H         1 <0>         0.0539
     41 H16        -1.0639    1.5992    0.0173 H         1 <0>         0.0568
     42 H17        -0.6809    2.9605    4.9610 H         1 <0>         0.3881
@<TRIPOS>BOND
     1    1    2 1
     2    1   27 1
     3    1   28 1
     4    1   29 1
     5    2    7 am
     6    2    3 1
     7    3    4 1
     8    3   18 1
     9    3    5 1
    10    5    6 1
    11    5   10 2
    12    6    7 1
    13    6    9 2
    14    7    8 2
    15   10   12 1
    16   10   11 1
    17   11   30 1
    18   12   17 ar
    19   12   13 ar
    20   13   14 ar
    21   13   31 1
    22   14   15 ar
    23   14   32 1
    24   15   16 ar
    25   15   33 1
    26   16   17 ar
    27   16   34 1
    28   17   35 1
    29   18   23 ar
    30   18   19 ar
    31   19   20 ar
    32   19   36 1
    33   20   21 ar
    34   20   37 1
    35   21   22 ar
    36   21   26 1
    37   22   23 ar
    38   22   24 1
    39   23   38 1
    40   24   25 1
    41   25   39 1
    42   25   40 1
    43   25   41 1
    44   26   42 1
@<TRIPOS>MOLECULE
ZINC00487867
   42    44     0     0     0
SMALL
USER_CHARGES
4-benzoyl-3-hydroxy-5-(4-hydroxy-3-methoxy-phenyl)-1-methyl-5H-pyrrol-2-one
@<TRIPOS>ATOM
      1 C1         -1.7726    7.5765   -0.3853 C.3       1 <0>         0.1025
      2 N1         -0.3270    7.3798   -0.2527 N.am      1 <0>        -0.5930
      3 C2          0.3643    6.0883   -0.1637 C.3       1 <0>         0.2162
      4 H1          0.1817    5.5016   -1.0640 H         1 <0>         0.1261
      5 C3          1.8363    6.4057   -0.0403 C.3       1 <0>        -0.2473
      6 C4          1.9479    7.7546   -0.0594 C.2       1 <0>         0.3255
      7 C5          0.6018    8.3513   -0.1914 C.2       1 <0>         0.5032
      8 O1          0.3687    9.5428   -0.2377 O.2       1 <0>        -0.4592
      9 O2          3.1069    8.4467    0.0282 O.2       1 <0>        -0.4449
     10 C6          2.9322    5.4394    0.0771 C.2       1 <0>         0.4673
     11 O3          3.5815    5.3777    1.1041 O.2       1 <0>        -0.4212
     12 C7          3.2485    4.5395   -1.0527 C.ar      1 <0>        -0.1716
     13 C8          2.5515    4.6545   -2.2574 C.ar      1 <0>        -0.0663
     14 C9          2.8553    3.8152   -3.3090 C.ar      1 <0>        -0.1302
     15 C10         3.8407    2.8537   -3.1687 C.ar      1 <0>        -0.0781
     16 C11         4.5314    2.7306   -1.9758 C.ar      1 <0>        -0.1304
     17 C12         4.2417    3.5670   -0.9180 C.ar      1 <0>        -0.0540
     18 C13        -0.1062    5.3314    1.0515 C.ar      1 <0>        -0.0983
     19 C14        -0.3771    6.0106    2.2249 C.ar      1 <0>        -0.1210
     20 C15        -0.8094    5.3209    3.3423 C.ar      1 <0>        -0.1004
     21 C16        -0.9716    3.9459    3.2880 C.ar      1 <0>         0.0933
     22 C17        -0.6984    3.2622    2.1071 C.ar      1 <0>         0.1092
     23 C18        -0.2600    3.9589    0.9924 C.ar      1 <0>        -0.1703
     24 O4         -0.8561    1.9127    2.0488 O.3       1 <0>        -0.3028
     25 C19        -0.4410    1.2624    0.8460 C.3       1 <0>         0.0220
     26 O5         -1.3963    3.2658    4.3865 O.3       1 <0>        -0.4842
     27 H2         -2.2221    7.6471    0.6052 H         1 <0>         0.0704
     28 H3         -1.9650    8.4961   -0.9380 H         1 <0>         0.0894
     29 H4         -2.2064    6.7326   -0.9218 H         1 <0>         0.0856
     30 H5          2.0780    6.4958    0.9259 H         1 <0>         0.1706
     31 H6          1.7792    5.4015   -2.3667 H         1 <0>         0.1322
     32 H7          2.3201    3.9060   -4.2427 H         1 <0>         0.1341
     33 H8          4.0715    2.1962   -3.9938 H         1 <0>         0.1316
     34 H9          5.2992    1.9780   -1.8730 H         1 <0>         0.1335
     35 H10         4.7815    3.4698    0.0124 H         1 <0>         0.1362
     36 H11        -0.2511    7.0823    2.2685 H         1 <0>         0.1269
     37 H12        -1.0204    5.8538    4.2577 H         1 <0>         0.1434
     38 H13        -0.0427    3.4301    0.0762 H         1 <0>         0.1404
     39 H14        -0.5433    0.1835    0.9624 H         1 <0>         0.1049
     40 H15         0.6008    1.5085    0.6409 H         1 <0>         0.0576
     41 H16        -1.0639    1.5992    0.0173 H         1 <0>         0.0585
     42 H17        -0.6809    2.9605    4.9610 H         1 <0>         0.3925
@<TRIPOS>BOND
     1    1    2 1
     2    1   27 1
     3    1   28 1
     4    1   29 1
     5    2    7 am
     6    2    3 1
     7    3    4 1
     8    3   18 1
     9    3    5 1
    10    5   30 1
    11    5    6 1
    12    5   10 1
    13    6    7 1
    14    6    9 2
    15    7    8 2
    16   10   12 1
    17   10   11 2
    18   12   17 ar
    19   12   13 ar
    20   13   14 ar
    21   13   31 1
    22   14   15 ar
    23   14   32 1
    24   15   16 ar
    25   15   33 1
    26   16   17 ar
    27   16   34 1
    28   17   35 1
    29   18   23 ar
    30   18   19 ar
    31   19   20 ar
    32   19   36 1
    33   20   21 ar
    34   20   37 1
    35   21   22 ar
    36   21   26 1
    37   22   23 ar
    38   22   24 1
    39   23   38 1
    40   24   25 1
    41   25   39 1
    42   25   40 1
    43   25   41 1
    44   26   42 1
@<TRIPOS>MOLECULE
ZINC00487866
   42    44     0     0     0
SMALL
USER_CHARGES
4-benzoyl-3-hydroxy-5-(4-hydroxy-3-methoxy-phenyl)-1-methyl-5H-pyrrol-2-one
@<TRIPOS>ATOM
      1 C1          6.3401    4.3966    0.0593 C.3       1 <0>         0.1039
      2 N1          4.8894    4.6004    0.0752 N.am      1 <0>        -0.6057
      3 C2          3.8688    3.5475    0.0161 C.3       1 <0>         0.2742
      4 H1          3.9672    2.9851   -0.9124 H         1 <0>         0.0842
      5 C3          2.5331    4.2525    0.0573 C.2       1 <0>        -0.5604
      6 C4          2.7937    5.5786    0.1360 C.2       1 <0>         0.3150
      7 C5          4.2573    5.7856    0.1525 C.2       1 <0>         0.5093
      8 O1          4.8080    6.8663    0.2208 O.2       1 <0>        -0.4980
      9 O2          1.8627    6.5583    0.1936 O.2       1 <0>        -0.5846
     10 C6          1.2103    3.6222    0.0194 C.2       1 <0>         0.5154
     11 O3          0.4742    3.6941    0.9855 O.3       1 <0>        -0.3215
     12 C7          0.7704    2.8990   -1.1929 C.ar      1 <0>        -0.1514
     13 C8         -0.4576    2.2341   -1.2062 C.ar      1 <0>        -0.0490
     14 C9         -0.8620    1.5618   -2.3406 C.ar      1 <0>        -0.1349
     15 C10        -0.0536    1.5447   -3.4638 C.ar      1 <0>        -0.0554
     16 C11         1.1645    2.2015   -3.4574 C.ar      1 <0>        -0.1355
     17 C12         1.5809    2.8781   -2.3300 C.ar      1 <0>        -0.0278
     18 C13         4.0031    2.6226    1.1983 C.ar      1 <0>        -0.0721
     19 C14         4.2340    3.1427    2.4582 C.ar      1 <0>        -0.1185
     20 C15         4.3523    2.2987    3.5467 C.ar      1 <0>        -0.1040
     21 C16         4.2508    0.9276    3.3745 C.ar      1 <0>         0.0795
     22 C17         4.0240    0.4037    2.1054 C.ar      1 <0>         0.1053
     23 C18         3.9007    1.2556    1.0195 C.ar      1 <0>        -0.1863
     24 O4          3.9231   -0.9413    1.9314 O.3       1 <0>        -0.3062
     25 C19         3.5740   -1.4019    0.6245 C.3       1 <0>         0.0251
     26 O5          4.3729    0.0956    4.4433 O.3       1 <0>        -0.4866
     27 H2          6.6979    4.4119   -0.9701 H         1 <0>         0.0615
     28 H3          6.8250    5.1926    0.6244 H         1 <0>         0.0796
     29 H4          6.5767    3.4337    0.5120 H         1 <0>         0.0744
     30 H5          0.9257    4.2141    1.7106 H         1 <0>         0.4617
     31 H6         -1.0912    2.2500   -0.3317 H         1 <0>         0.1408
     32 H7         -1.8114    1.0472   -2.3522 H         1 <0>         0.1398
     33 H8         -0.3751    1.0168   -4.3494 H         1 <0>         0.1380
     34 H9          1.7906    2.1839   -4.3373 H         1 <0>         0.1414
     35 H10         2.5316    3.3905   -2.3265 H         1 <0>         0.1458
     36 H11         4.3181    4.2109    2.5931 H         1 <0>         0.1275
     37 H12         4.5287    2.7078    4.5306 H         1 <0>         0.1388
     38 H13         3.7244    0.8516    0.0336 H         1 <0>         0.1331
     39 H14         4.3673   -1.1422   -0.0763 H         1 <0>         0.0565
     40 H15         3.4455   -2.4842    0.6431 H         1 <0>         0.1029
     41 H16         2.6427   -0.9308    0.3100 H         1 <0>         0.0548
     42 H17         5.2798   -0.1922    4.6162 H         1 <0>         0.3895
@<TRIPOS>BOND
     1    1    2 1
     2    1   27 1
     3    1   28 1
     4    1   29 1
     5    2    7 am
     6    2    3 1
     7    3    4 1
     8    3   18 1
     9    3    5 1
    10    5    6 1
    11    5   10 2
    12    6    7 1
    13    6    9 2
    14    7    8 2
    15   10   12 1
    16   10   11 1
    17   11   30 1
    18   12   17 ar
    19   12   13 ar
    20   13   14 ar
    21   13   31 1
    22   14   15 ar
    23   14   32 1
    24   15   16 ar
    25   15   33 1
    26   16   17 ar
    27   16   34 1
    28   17   35 1
    29   18   23 ar
    30   18   19 ar
    31   19   20 ar
    32   19   36 1
    33   20   21 ar
    34   20   37 1
    35   21   22 ar
    36   21   26 1
    37   22   23 ar
    38   22   24 1
    39   23   38 1
    40   24   25 1
    41   25   39 1
    42   25   40 1
    43   25   41 1
    44   26   42 1
@<TRIPOS>MOLECULE
ZINC00487866
   42    44     0     0     0
SMALL
USER_CHARGES
4-benzoyl-3-hydroxy-5-(4-hydroxy-3-methoxy-phenyl)-1-methyl-5H-pyrrol-2-one
@<TRIPOS>ATOM
      1 C1          6.3401    4.3961    0.0675 C.3       1 <0>         0.1022
      2 N1          4.8894    4.6002    0.0790 N.am      1 <0>        -0.5929
      3 C2          3.8688    3.5475    0.0161 C.3       1 <0>         0.2159
      4 H1          3.9672    2.9851   -0.9124 H         1 <0>         0.1256
      5 C3          2.5331    4.2525    0.0573 C.3       1 <0>        -0.2470
      6 C4          2.7937    5.5789    0.1301 C.2       1 <0>         0.3250
      7 C5          4.2573    5.7858    0.1490 C.2       1 <0>         0.5032
      8 O1          4.8080    6.8668    0.2133 O.2       1 <0>        -0.4595
      9 O2          1.8627    6.5590    0.1808 O.2       1 <0>        -0.4442
     10 C6          1.2103    3.6222    0.0194 C.2       1 <0>         0.4664
     11 O3          0.4742    3.6941    0.9855 O.2       1 <0>        -0.4199
     12 C7          0.7704    2.8990   -1.1929 C.ar      1 <0>        -0.1708
     13 C8         -0.4576    2.2341   -1.2062 C.ar      1 <0>        -0.0536
     14 C9         -0.8620    1.5618   -2.3406 C.ar      1 <0>        -0.1302
     15 C10        -0.0536    1.5447   -3.4638 C.ar      1 <0>        -0.0784
     16 C11         1.1645    2.2015   -3.4574 C.ar      1 <0>        -0.1306
     17 C12         1.5809    2.8781   -2.3300 C.ar      1 <0>        -0.0666
     18 C13         4.0031    2.6226    1.1983 C.ar      1 <0>        -0.0990
     19 C14         4.2340    3.1427    2.4582 C.ar      1 <0>        -0.1212
     20 C15         4.3523    2.2987    3.5467 C.ar      1 <0>        -0.1005
     21 C16         4.2508    0.9276    3.3745 C.ar      1 <0>         0.0942
     22 C17         4.0240    0.4037    2.1054 C.ar      1 <0>         0.1084
     23 C18         3.9007    1.2556    1.0195 C.ar      1 <0>        -0.1686
     24 O4          3.9231   -0.9413    1.9314 O.3       1 <0>        -0.3032
     25 C19         3.5740   -1.4019    0.6245 C.3       1 <0>         0.0223
     26 O5          4.3729    0.0956    4.4433 O.3       1 <0>        -0.4836
     27 H2          6.7003    4.4063   -0.9612 H         1 <0>         0.0727
     28 H3          6.8238    5.1948    0.6298 H         1 <0>         0.0876
     29 H4          6.5755    3.4354    0.5254 H         1 <0>         0.0845
     30 H5          2.2390    4.3542    1.0077 H         1 <0>         0.1707
     31 H6         -1.0912    2.2500   -0.3317 H         1 <0>         0.1364
     32 H7         -1.8114    1.0472   -2.3522 H         1 <0>         0.1336
     33 H8         -0.3751    1.0168   -4.3494 H         1 <0>         0.1315
     34 H9          1.7906    2.1839   -4.3373 H         1 <0>         0.1339
     35 H10         2.5316    3.3905   -2.3265 H         1 <0>         0.1319
     36 H11         4.3181    4.2109    2.5931 H         1 <0>         0.1259
     37 H12         4.5287    2.7078    4.5306 H         1 <0>         0.1436
     38 H13         3.7244    0.8516    0.0336 H         1 <0>         0.1410
     39 H14         4.3673   -1.1422   -0.0763 H         1 <0>         0.0581
     40 H15         3.4455   -2.4842    0.6431 H         1 <0>         0.1049
     41 H16         2.6427   -0.9308    0.3100 H         1 <0>         0.0583
     42 H17         5.2798   -0.1922    4.6162 H         1 <0>         0.3922
@<TRIPOS>BOND
     1    1    2 1
     2    1   27 1
     3    1   28 1
     4    1   29 1
     5    2    7 am
     6    2    3 1
     7    3    4 1
     8    3   18 1
     9    3    5 1
    10    5   30 1
    11    5    6 1
    12    5   10 1
    13    6    7 1
    14    6    9 2
    15    7    8 2
    16   10   12 1
    17   10   11 2
    18   12   17 ar
    19   12   13 ar
    20   13   14 ar
    21   13   31 1
    22   14   15 ar
    23   14   32 1
    24   15   16 ar
    25   15   33 1
    26   16   17 ar
    27   16   34 1
    28   17   35 1
    29   18   23 ar
    30   18   19 ar
    31   19   20 ar
    32   19   36 1
    33   20   21 ar
    34   20   37 1
    35   21   22 ar
    36   21   26 1
    37   22   23 ar
    38   22   24 1
    39   23   38 1
    40   24   25 1
    41   25   39 1
    42   25   40 1
    43   25   41 1
    44   26   42 1
