@<TRIPOS>MOLECULE
Asparagine                                                                      
   17    16    0     0     0
SMALL
NO_CHARGES
****
C4H8N2O3
@<TRIPOS>ATOM
1     N                0.1890  -2.7691   2.1869 N.3       1 ASN  -0.3189
2     CA               0.6793  -1.4086   2.1869 C.3       1 ASN   0.0994
3     CB              -0.0814  -0.3035   2.9270 C.3       1 ASN   0.0450
4     C4              -1.5867  -0.4699   2.8156 C.2       1 ASN   0.2000
5     N5              -2.3988   0.4463   3.4291 N.am      1 ASN  -0.2723
6     O6              -2.0534  -1.3902   2.2107 O.2       1 ASN  -0.2797
7     C                2.1869  -1.4086   2.1869 C.2       1 ASN   0.2770
8     O8               2.8083  -0.3690   2.1869 O.2       1 ASN  -0.2634
9     O9               2.7572  -2.5991   2.1821 O.3       1 ASN  -0.3301
10    H10             -0.8110  -2.7630   2.1869 H         1 ASN   0.1189
11    H11              0.5194  -3.2425   3.0033 H         1 ASN   0.1189
12    H12              0.5424  -1.2452   1.1383 H         1 ASN   0.0567
13    H13              0.1798   0.6322   2.4786 H         1 ASN   0.0376
14    H14              0.1927  -0.3295   3.9610 H         1 ASN   0.0376
15    H15             -3.3926   0.3495   3.3743 H         1 ASN   0.1266
16    H16             -1.9980   1.2120   3.9322 H         1 ASN   0.1266
17    H17              3.7145  -2.6726   2.1782 H         1 ASN   0.2203
@<TRIPOS>BOND
1     1     2     1
2     1     10    1
3     1     11    1
4     2     3     1
5     2     7     1
6     2     12    1
7     3     4     1
8     3     13    1
9     3     14    1
10    4     5     1
11    4     6     2
12    5     15    1
13    5     16    1
14    7     8     2
15    7     9     1
16    9     17    1
