@<TRIPOS>MOLECULE
PTABLE
   105   164     3
SMALL
NO_CHARGES
****
Generated from the CSD

@<TRIPOS>ATOM
     1 H        0.0000   0.0000   0.0000   H         1 RES1   0.0000
     2 H        1.0000   0.0000   0.0000   H         1 RES1   0.0000
     3 He       1.0000   0.0000  17.0000   He        1 RES1   0.0000
     4 Li       2.0000   0.0000   0.0000   Li        1 RES1   0.0000
     5 Be       2.0000   0.0000   1.0000   Be        1 RES1   0.0000
     6 B        2.0000   0.0000  12.0000   B         1 RES1   0.0000
     7 C        2.0000   0.0000  13.0000   C.2       1 RES1   0.0000
     8 N        2.0000   0.0000  14.0000   N.3       1 RES1   0.0000
     9 O        2.0000   0.0000  15.0000   O.3       1 RES1   0.0000
    10 F        2.0000   0.0000  16.0000   F         1 RES1   0.0000
    11 Na       3.0000   0.0000   0.0000   Na        1 RES1   0.0000
    12 Mg       3.0000   0.0000   1.0000   Mg        1 RES1   0.0000
    13 Al       3.0000   0.0000  12.0000   Al        1 RES1   0.0000
    14 Si       3.0000   0.0000  13.0000   Si        1 RES1   0.0000
    15 P        3.0000   0.0000  14.0000   P.3       1 RES1   0.0000
    16 S        3.0000   0.0000  15.0000   S.3       1 RES1   0.0000
    17 Cl       3.0000   0.0000  16.0000   Cl        1 RES1   0.0000
    18 K        4.0000   0.0000   0.0000   K         1 RES1   0.0000
    19 Ca       4.0000   0.0000   1.0000   Ca        1 RES1   0.0000
    20 Sc       4.0000   0.0000   2.0000   Sc        1 RES1   0.0000
    21 Ti       4.0000   0.0000   3.0000   Ti.th     1 RES1   0.0000
    22 V        4.0000   0.0000   4.0000   V         1 RES1   0.0000
    23 Cr       4.0000   0.0000   5.0000   Cr.th     1 RES1   0.0000
    24 Mn       4.0000   0.0000   6.0000   Mn        1 RES1   0.0000
    25 Fe       4.0000   0.0000   7.0000   Fe        1 RES1   0.0000
    26 Co       4.0000   0.0000   8.0000   Co.oh     1 RES1   0.0000
    27 Ni       4.0000   0.0000   9.0000   Ni        1 RES1   0.0000
    28 Cu       4.0000   0.0000  10.0000   Cu        1 RES1   0.0000
    29 Zn       4.0000   0.0000  11.0000   Zn        1 RES1   0.0000
    30 Ga       4.0000   0.0000  12.0000   Ga        1 RES1   0.0000
    31 Ge       4.0000   0.0000  13.0000   Ge        1 RES1   0.0000
    32 As       4.0000   0.0000  14.0000   As        1 RES1   0.0000
    33 Se       4.0000   0.0000  15.0000   Se        1 RES1   0.0000
    34 Br       4.0000   0.0000  16.0000   Br        1 RES1   0.0000
    35 Kr       4.0000   0.0000  17.0000   Kr        1 RES1   0.0000
    36 Rb       5.0000   0.0000   0.0000   Rb        1 RES1   0.0000
    37 Sr       5.0000   0.0000   1.0000   Sr        1 RES1   0.0000
    38 Y        5.0000   0.0000   2.0000   Y         1 RES1   0.0000
    39 Zr       5.0000   0.0000   3.0000   Zr        1 RES1   0.0000
    40 Nb       5.0000   0.0000   4.0000   Nb        1 RES1   0.0000
    41 Mo       5.0000   0.0000   5.0000   Mo        1 RES1   0.0000
    42 Tc       5.0000   0.0000   6.0000   Tc        1 RES1   0.0000
    43 Ru       5.0000   0.0000   7.0000   Ru.oh     1 RES1   0.0000
    44 Rh       5.0000   0.0000   8.0000   Rh        1 RES1   0.0000
    45 Pd       5.0000   0.0000   9.0000   Pd        1 RES1   0.0000
    46 Ag       5.0000   0.0000  10.0000   Ag        1 RES1   0.0000
    47 Cd       5.0000   0.0000  11.0000   Cd        1 RES1   0.0000
    48 In       5.0000   0.0000  12.0000   In        1 RES1   0.0000
    49 Sn       5.0000   0.0000  13.0000   Sn        1 RES1   0.0000
    50 Sb       5.0000   0.0000  14.0000   Sb        1 RES1   0.0000
    51 Te       5.0000   0.0000  15.0000   Te        1 RES1   0.0000
    52 I        5.0000   0.0000  16.0000   I         1 RES1   0.0000
    53 Xe       5.0000   0.0000  17.0000   Xe        1 RES1   0.0000
    54 Cs       6.0000   0.0000   0.0000   Cs        1 RES1   0.0000
    55 Ba       6.0000   0.0000   1.0000   Ba        1 RES1   0.0000
    56 La       6.0000   0.0000   2.0000   La        1 RES1   0.0000
    57 Hf       6.0000   0.0000   3.0000   Hf        1 RES1   0.0000
    58 Ta       6.0000   0.0000   4.0000   Ta        1 RES1   0.0000
    59 W        6.0000   0.0000   5.0000   W         1 RES1   0.0000
    60 Re       6.0000   0.0000   6.0000   Re        1 RES1   0.0000
    61 Os       6.0000   0.0000   7.0000   Os        1 RES1   0.0000
    62 Ir       6.0000   0.0000   8.0000   Ir        1 RES1   0.0000
    63 Pt       6.0000   0.0000   9.0000   Pt        1 RES1   0.0000
    64 Au       6.0000   0.0000  10.0000   Au        1 RES1   0.0000
    65 Hg       6.0000   0.0000  11.0000   Hg        1 RES1   0.0000
    66 Tl       6.0000   0.0000  12.0000   Tl        1 RES1   0.0000
    67 Pb       6.0000   0.0000  13.0000   Pb        1 RES1   0.0000
    68 Bi       6.0000   0.0000  14.0000   Bi        1 RES1   0.0000
    69 Po       6.0000   0.0000  15.0000   Po        1 RES1   0.0000
    70 At       6.0000   0.0000  16.0000   At        1 RES1   0.0000
    71 Rn       6.0000   0.0000  17.0000   Rn        1 RES1   0.0000
    72 Fr       7.0000   0.0000   0.0000   Fr        1 RES1   0.0000
    73 Ra       7.0000   0.0000   1.0000   Ra        1 RES1   0.0000
    74 Ac       7.0000   0.0000   2.0000   Ac        1 RES1   0.0000
    75 Ne       2.0000   0.0000  17.0000   Ne        1 RES1   0.0000
    76 Ar       3.0000   0.0000  17.0000   Ar        1 RES1   0.0000
    77 Ce       8.0000   0.0000   4.0000   Ce        2 RES2   0.0000
    78 Pr       8.0000   0.0000   5.0000   Pr        2 RES2   0.0000
    79 Nd       8.0000   0.0000   6.0000   Nd        2 RES2   0.0000
    80 Pm       8.0000   0.0000   7.0000   Pm        2 RES2   0.0000
    81 Sm       8.0000   0.0000   8.0000   Sm        2 RES2   0.0000
    82 Eu       8.0000   0.0000   9.0000   Eu        2 RES2   0.0000
    83 Gd       8.0000   0.0000  10.0000   Gd        2 RES2   0.0000
    84 Tb       8.0000   0.0000  11.0000   Tb        2 RES2   0.0000
    85 Dy       8.0000   0.0000  12.0000   Dy        2 RES2   0.0000
    86 Ho       8.0000   0.0000  13.0000   Ho        2 RES2   0.0000
    87 Er       8.0000   0.0000  14.0000   Er        2 RES2   0.0000
    88 Tm       8.0000   0.0000  15.0000   Tm        2 RES2   0.0000
    89 Yb       8.0000   0.0000  16.0000   Yb        2 RES2   0.0000
    90 Lu       8.0000   0.0000  17.0000   Lu        2 RES2   0.0000
    91 Th       9.0000   0.0000   4.0000   Th        2 RES2   0.0000
    92 Pa       9.0000   0.0000   5.0000   Pa        2 RES2   0.0000
    93 U        9.0000   0.0000   6.0000   U         2 RES2   0.0000
    94 Np       9.0000   0.0000   7.0000   Np        2 RES2   0.0000
    95 Pu       9.0000   0.0000   8.0000   Pu        2 RES2   0.0000
    96 Am       9.0000   0.0000   9.0000   Am        2 RES2   0.0000
    97 Cm       9.0000   0.0000  10.0000   Cm        2 RES2   0.0000
    98 Bk       9.0000   0.0000  11.0000   Bk        2 RES2   0.0000
    99 Cf       9.0000   0.0000  12.0000   Cf        2 RES2   0.0000
   100 Es       9.0000   0.0000  13.0000   Es        2 RES2   0.0000
   101 Fm       9.0000   0.0000  14.0000   Fm        2 RES2   0.0000
   102 Md       9.0000   0.0000  15.0000   Md        2 RES2   0.0000
   103 No       9.0000   0.0000  16.0000   No        2 RES2   0.0000
   104 Lr       9.0000   0.0000  17.0000   Lr        2 RES2   0.0000
   105 Un       9.0000   0.0000   0.0000   Unknown   3 RES3   0.0000
@<TRIPOS>BOND
     1     1     2    1
     2     2     4    1
     3     3    75    1
     4     4     5    1
     5     6     7    1
     6     7     8    1
     7     8     9    1
     8     9    10    1
     9    11    12    1
    10    13    14    1
    11    14    15    1
    12    15    16    1
    13    16    17    1
    14    18    19    1
    15    19    20    1
    16    20    21    1
    17    21    22    1
    18    22    23    1
    19    23    24    1
    20    24    25    1
    21    25    26    1
    22    26    27    1
    23    27    28    1
    24    28    29    1
    25    29    30    1
    26    30    31    1
    27    31    32    1
    28    32    33    1
    29    33    34    1
    30    34    35    1
    31    36    37    1
    32    37    38    1
    33    38    39    1
    34    39    40    1
    35    40    41    1
    36    41    42    1
    37    42    43    1
    38    43    44    1
    39    44    45    1
    40    45    46    1
    41    46    47    1
    42    47    48    1
    43    48    49    1
    44    49    50    1
    45    50    51    1
    46    51    52    1
    47    52    53    1
    48    54    55    1
    49    55    56    1
    50    56    57    1
    51    57    58    1
    52    58    59    1
    53    59    60    1
    54    60    61    1
    55    61    62    1
    56    62    63    1
    57    63    64    1
    58    64    65    1
    59    65    66    1
    60    66    67    1
    61    67    68    1
    62    68    69    1
    63    69    70    1
    64    70    71    1
    65    72    73    1
    66    73    74    1
    67     4    11    1
    68    11    18    1
    69    18    36    1
    70    36    54    1
    71    54    71    1
    72     5    12    1
    73    12    19    1
    74    19    37    1
    75    37    55    1
    76    55    73    1
    77    20    38    1
    78    21    39    1
    79    22    40    1
    80    23    41    1
    81    24    42    1
    82    25    43    1
    83    26    44    1
    84    27    45    1
    85    28    46    1
    86    29    47    1
    87    30    48    1
    88    31    49    1
    89    32    50    1
    90    33    51    1
    91    34    52    1
    92    35    53    1
    93    38    56    1
    94    39    57    1
    95    40    58    1
    96    41    59    1
    97    42    60    1
    98    43    61    1
    99    44    62    1
   100    45    63    1
   101    46    64    1
   102    47    65    1
   103    48    66    1
   104    49    67    1
   105    50    68    1
   106    51    69    1
   107    52    70    1
   108    53    71    1
   109    54    72    1
   110    56    74    1
   111     6    13    1
   112     7    14    1
   113     8    15    1
   114     9    16    1
   115    10    17    1
   116    13    30    1
   117    14    31    1
   118    15    32    1
   119    16    33    1
   120    17    34    1
   121    10    75    1
   122    17    76    1
   123    75    76    1
   124    35    76    1
   125    77    78    1
   126    78    79    1
   127    79    80    1
   128    80    81    1
   129    81    82    1
   130    82    83    1
   131    83    84    1
   132    84    85    1
   133    85    86    1
   134    86    87    1
   135    87    88    1
   136    88    89    1
   137    89    90    1
   138    91    92    1
   139    92    93    1
   140    93    94    1
   141    94    95    1
   142    95    96    1
   143    96    97    1
   144    97    98    1
   145    98    99    1
   146    99   100    1
   147   100   101    1
   148   101   102    1
   149   102   103    1
   150   103   104    1
   151    77    91    1
   152    78    92    1
   153    79    93    1
   154    80    94    1
   155    81    95    1
   156    82    96    1
   157    83    97    1
   158    84    98    1
   159    85    99    1
   160    86   100    1
   161    87   101    1
   162    88   102    1
   163    89   103    1
   164    90   104    1
@<TRIPOS>SUBSTRUCTURE
     1 RES1       1
     2 RES2      77
     3 RES3     105
@<TRIPOS>CRYSIN

